CaseE/case.raw
0,100.0,33,0,1,60.0
GRID OPTIMIZATION COMPETITION CHALLENGE 2
INPUT DATA FILES ARE RAW JSON CON
1,'St Lucie',22.2,2,6,3,1,1.01999998,73.547129,1.05,0.95,1.1,0.9
2,'St Lucie',22.2,2,6,3,1,1.01999998,73.547129,1.05,0.95,1.1,0.9
3,'Seminole (~1',22.2,2,6,2,1,1.01999998,80.561678,1.05,0.95,1.1,0.9
4,'Seminole (~1',22.2,2,6,2,1,1.01999998,80.561678,1.05,0.95,1.1,0.9
5,'St Johns R~1',22.2,2,6,2,1,1.01999998,84.107311,1.05,0.95,1.1,0.9
6,'St Johns R~1',22.2,2,6,2,1,1.01999998,84.107311,1.05,0.95,1.1,0.9
7,'Anclote',22.2,2,6,1,1,1.01999998,70.662118,1.05,0.95,1.1,0.9
8,'Anclote',22.2,2,6,1,1,1.01999998,70.662863,1.05,0.95,1.1,0.9
9,'Stanton En~1',15.6,2,6,2,1,1.01999998,73.91518,1.05,0.95,1.1,0.9
10,'Stanton En~1',22.2,2,6,2,1,1.01999998,74.287651,1.05,0.95,1.1,0.9
11,'Stanton En~1',22.2,2,6,2,1,1.01999998,74.287268,1.05,0.95,1.1,0.9
12,'Stanton En~1',12.8,2,6,2,1,1.01999998,72.983256,1.05,0.95,1.1,0.9
13,'Big Bend',22.2,2,6,4,1,1.01999998,70.400809,1.05,0.95,1.1,0.9
14,'Big Bend',22.2,2,6,4,1,1.01999998,73.459579,1.05,0.95,1.1,0.9
15,'Big Bend',22.2,2,6,4,1,1.01999998,73.459579,1.05,0.95,1.1,0.9
16,'Big Bend',22.2,2,6,4,1,1.01999998,73.459436,1.05,0.95,1.1,0.9
17,'Big Bend',22.2,2,6,4,1,1.01999998,73.489379,1.05,0.95,1.1,0.9
18,'Crystal Ri~1',22.2,3,6,1,1,1.01999998,83.414416,1.05,0.95,1.1,0.9
19,'Crystal Ri~1',22.2,2,6,1,1,1.01999998,83.448451,1.05,0.95,1.1,0.9
20,'Crystal Ri~1',22.2,2,6,1,1,1.01999998,83.408945,1.05,0.95,1.1,0.9
21,'Crystal Ri~1',22.2,2,6,1,1,1.01999998,83.323178,1.05,0.95,1.1,0.9
22,'Crystal Ri~1',22.2,2,6,1,1,1.01999998,83.427079,1.05,0.95,1.1,0.9
23,'Cape Canav~1',22.2,1,6,2,1,1.00625253,62.48087,1.05,0.95,1.1,0.9
24,'Cape Canav~1',22.2,1,6,2,1,1.00624979,62.4802,1.05,0.95,1.1,0.9
25,'C D McInto~1',12.8,1,6,4,1,0.99149144,63.17425,1.05,0.95,1.1,0.9
26,'C D McInto~1',8.32,1,6,4,1,0.99149674,63.17548,1.05,0.95,1.1,0.9
27,'C D McInto~1',12.8,1,6,4,1,0.99149144,63.17425,1.05,0.95,1.1,0.9
28,'C D McInto~1',15.6,1,6,4,1,0.99149674,63.17548,1.05,0.95,1.1,0.9
29,'C D McInto~1',15.6,2,6,4,1,1.01999998,70.403131,1.05,0.95,1.1,0.9
30,'C D McInto~1',12.8,1,6,4,1,0.99149144,63.17425,1.05,0.95,1.1,0.9
31,'Riviera',15.6,2,6,3,1,1.01999998,58.993136,1.05,0.95,1.1,0.9
32,'Riviera',15.6,2,6,3,1,1.01999998,58.993136,1.05,0.95,1.1,0.9
33,'West Count~1',22.2,2,6,3,1,1.01999998,68.713117,1.05,0.95,1.1,0.9
34,'West Count~1',22.2,2,6,3,1,1.01999998,68.713117,1.05,0.95,1.1,0.9
35,'West Count~1',15.6,1,6,3,1,1.00624001,61.248021,1.05,0.95,1.1,0.9
36,'West Count~1',15.6,2,6,3,1,1.01999998,68.441576,1.05,0.95,1.1,0.9
37,'West Count~1',15.6,1,6,3,1,1.00624001,61.248021,1.05,0.95,1.1,0.9
38,'West Count~1',15.6,1,6,3,1,1.00624001,61.248021,1.05,0.95,1.1,0.9
39,'West Count~1',15.6,2,6,3,1,1.01999998,68.447593,1.05,0.95,1.1,0.9
40,'West Count~1',15.6,1,6,3,1,1.0062604,61.254168,1.05,0.95,1.1,0.9
41,'Northside ~1',22.2,1,6,2,1,1.00200129,75.992917,1.05,0.95,1.1,0.9
42,'Northside ~1',22.2,1,6,2,1,1.00200129,75.992917,1.05,0.95,1.1,0.9
43,'Northside ~1',22.2,2,6,2,1,1.01999998,79.112285,1.05,0.95,1.1,0.9
44,'Northside ~1',22.2,2,6,2,1,1.01999998,79.108979,1.05,0.95,1.1,0.9
45,'Northside ~1',22.2,2,6,2,1,1.01999998,77.437215,1.05,0.95,1.1,0.9
46,'Northside ~1',15.6,2,6,2,1,1.01999998,83.198206,1.05,0.95,1.1,0.9
47,'Northside ~1',15.6,2,6,2,1,1.01999998,83.201478,1.05,0.95,1.1,0.9
48,'Cedar Bay ~1',15.6,2,6,2,1,1.01999998,75.11493,1.05,0.95,1.1,0.9
49,'Deerhaven ~1',8.32,2,6,1,1,1.01999998,68.417377,1.05,0.95,1.1,0.9
50,'Deerhaven ~1',8.32,2,6,1,1,1.01999998,68.417377,1.05,0.95,1.1,0.9
51,'Deerhaven ~1',12.8,2,6,1,1,1.01999998,69.408457,1.05,0.95,1.1,0.9
52,'Deerhaven ~1',12.8,2,6,1,1,1.01999998,70.652556,1.05,0.95,1.1,0.9
53,'Deerhaven ~1',15.6,2,6,1,1,1.01999998,71.193404,1.05,0.95,1.1,0.9
54,'Treasure C~1',15.6,2,6,3,1,1.01999998,70.151316,1.05,0.95,1.1,0.9
55,'Treasure C~1',15.6,2,6,3,1,1.01999998,69.902792,1.05,0.95,1.1,0.9
56,'P L Bartow',8.32,2,6,4,1,1.01999998,67.20829,1.05,0.95,1.1,0.9
57,'P L Bartow',8.32,2,6,4,1,1.01999998,67.209738,1.05,0.95,1.1,0.9
58,'P L Bartow',8.32,2,6,4,1,1.01999998,67.209738,1.05,0.95,1.1,0.9
59,'P L Bartow',8.32,2,6,4,1,1.01999998,67.209738,1.05,0.95,1.1,0.9
60,'P L Bartow',22.2,2,6,4,1,1.01999998,67.438132,1.05,0.95,1.1,0.9
61,'P L Bartow',15.6,1,6,4,1,0.99140906,61.862478,1.05,0.95,1.1,0.9
62,'P L Bartow',15.6,1,6,4,1,0.99140906,61.862478,1.05,0.95,1.1,0.9
63,'P L Bartow',15.6,2,6,4,1,1.01999998,67.831544,1.05,0.95,1.1,0.9
64,'P L Bartow',15.6,2,6,4,1,1.01999998,67.832986,1.05,0.95,1.1,0.9
65,'Osceola (FL)',15.6,1,6,3,1,1.00302422,59.512982,1.05,0.95,1.1,0.9
66,'Osceola (FL)',15.6,1,6,3,1,1.00302422,59.512982,1.05,0.95,1.1,0.9
67,'Osceola (FL)',15.6,1,6,3,1,1.00302422,59.512982,1.05,0.95,1.1,0.9
68,'Santa Rosa~1',15.6,2,6,1,1,1.01999998,67.907817,1.05,0.95,1.1,0.9
69,'Santa Rosa~1',12.8,2,6,1,1,1.01999998,67.155438,1.05,0.95,1.1,0.9
70,'DeSoto Cou~1',15.6,2,6,4,1,1.01999998,68.895749,1.05,0.95,1.1,0.9
71,'DeSoto Cou~1',15.6,1,6,4,1,1.0145309,63.887964,1.05,0.95,1.1,0.9
72,'Midulla Ge~1',15.6,1,6,4,1,1.01497459,64.864169,1.05,0.95,1.1,0.9
73,'Midulla Ge~1',15.6,1,6,4,1,1.0149672,64.863206,1.05,0.95,1.1,0.9
74,'Midulla Ge~1',15.6,1,6,4,1,1.0149672,64.863206,1.05,0.95,1.1,0.9
75,'Arvah B Ho~1',22.2,2,6,1,1,1.01999998,71.186281,1.05,0.95,1.1,0.9
76,'Arvah B Ho~1',22.2,2,6,1,1,1.01999998,71.186281,1.05,0.95,1.1,0.9
77,'Arvah B Ho~1',8.32,2,6,1,1,1.01999998,70.719307,1.05,0.95,1.1,0.9
78,'Arvah B Ho~1',12.8,2,6,1,1,1.01999998,71.434503,1.05,0.95,1.1,0.9
79,'Arvah B Ho~1',15.6,2,6,1,1,1.01999998,73.083133,1.05,0.95,1.1,0.9
80,'Arvah B Ho~1',15.6,2,6,1,1,1.01999998,72.155519,1.05,0.95,1.1,0.9
81,'Oleander P~1',15.6,2,6,2,1,1.01999998,68.304316,1.05,0.95,1.1,0.9
82,'Oleander P~1',15.6,1,6,2,1,1.00375795,61.568042,1.05,0.95,1.1,0.9
83,'Oleander P~1',15.6,1,6,2,1,1.00375128,61.567796,1.05,0.95,1.1,0.9
84,'Oleander P~1',15.6,1,6,2,1,1.00375795,61.568042,1.05,0.95,1.1,0.9
85,'Oleander P~1',15.6,1,6,2,1,1.00375795,61.568042,1.05,0.95,1.1,0.9
86,'Tiger Bay',15.6,1,6,4,1,1.01197779,62.065178,1.05,0.95,1.1,0.9
87,'Tiger Bay',12.8,1,6,4,1,1.01197779,62.065178,1.05,0.95,1.1,0.9
88,'Polk',12.8,2,6,4,1,1.01999998,73.133356,1.05,0.95,1.1,0.9
89,'Polk',12.8,2,6,4,1,1.01999998,73.133335,1.05,0.95,1.1,0.9
90,'Polk',15.6,2,6,4,1,1.01999998,72.317879,1.05,0.95,1.1,0.9
91,'Polk',12.8,2,6,4,1,1.01999998,72.335528,1.05,0.95,1.1,0.9
92,'Polk',12.8,2,6,4,1,1.01999998,72.335528,1.05,0.95,1.1,0.9
93,'Polk',12.8,2,6,4,1,1.01999998,71.964581,1.05,0.95,1.1,0.9
94,'Osprey Ene~1',15.6,2,6,4,1,1.01999998,69.416367,1.05,0.95,1.1,0.9
95,'Osprey Ene~1',15.6,2,6,4,1,1.01999998,70.946732,1.05,0.95,1.1,0.9
96,'Osprey Ene~1',15.6,1,6,4,1,0.99628001,64.398104,1.05,0.95,1.1,0.9
97,'H L Culbre~1',12.8,1,6,4,1,1.00382769,64.231946,1.05,0.95,1.1,0.9
98,'H L Culbre~1',12.8,1,6,4,1,1.00382769,64.231946,1.05,0.95,1.1,0.9
99,'H L Culbre~1',12.8,1,6,4,1,1.00382769,64.231946,1.05,0.95,1.1,0.9
100,'H L Culbre~1',15.6,1,6,4,1,1.00380909,64.228558,1.05,0.95,1.1,0.9
101,'H L Culbre~1',22.2,1,6,4,1,1.00380909,64.228558,1.05,0.95,1.1,0.9
102,'H L Culbre~1',22.2,1,6,4,1,1.00380909,64.228558,1.05,0.95,1.1,0.9
103,'H L Culbre~1',22.2,1,6,4,1,1.00380909,64.228558,1.05,0.95,1.1,0.9
104,'H L Culbre~1',22.2,1,6,4,1,1.00382769,64.231946,1.05,0.95,1.1,0.9
105,'H L Culbre~1',22.2,1,6,4,1,1.00382769,64.231946,1.05,0.95,1.1,0.9
106,'H L Culbre~1',12.8,1,6,4,1,1.00382769,64.231946,1.05,0.95,1.1,0.9
107,'H L Culbre~1',12.8,1,6,4,1,1.00380909,64.228558,1.05,0.95,1.1,0.9
108,'H L Culbre~1',12.8,1,6,4,1,1.00380909,64.228558,1.05,0.95,1.1,0.9
109,'H L Culbre~1',12.8,1,6,4,1,1.00382769,64.231946,1.05,0.95,1.1,0.9
110,'Fort Myers',22.2,2,6,4,1,1.01999998,65.723051,1.05,0.95,1.1,0.9
111,'Fort Myers',22.2,1,6,4,1,1.01955652,60.872606,1.05,0.95,1.1,0.9
112,'Fort Myers',22.2,1,6,4,1,1.01955009,60.873754,1.05,0.95,1.1,0.9
113,'Fort Myers',22.2,1,6,4,1,1.01955652,60.872606,1.05,0.95,1.1,0.9
114,'Fort Myers',12.8,1,6,4,1,1.01955009,60.873754,1.05,0.95,1.1,0.9
115,'Fort Myers',12.8,2,6,4,1,1.01999998,66.540577,1.05,0.95,1.1,0.9
116,'Fort Myers',15.6,1,6,4,1,1.01955652,60.872606,1.05,0.95,1.1,0.9
117,'Fort Myers',15.6,2,6,4,1,1.01999998,67.61069,1.05,0.95,1.1,0.9
118,'Fort Myers',15.6,1,6,4,1,1.01955009,60.873754,1.05,0.95,1.1,0.9
119,'Fort Myers',15.6,2,6,4,1,1.01999998,67.611872,1.05,0.95,1.1,0.9
120,'Fort Myers',15.6,1,6,4,1,1.01955652,60.872606,1.05,0.95,1.1,0.9
121,'Fort Myers',15.6,1,6,4,1,1.01955009,60.873754,1.05,0.95,1.1,0.9
122,'Fort Myers',12.8,2,6,4,1,1.01999998,66.305605,1.05,0.95,1.1,0.9
123,'Fort Myers',22.2,1,6,4,1,1.01955009,60.873754,1.05,0.95,1.1,0.9
124,'Fort Myers',22.2,1,6,4,1,1.01955652,60.872606,1.05,0.95,1.1,0.9
125,'Fort Myers',22.2,1,6,4,1,1.01955009,60.873754,1.05,0.95,1.1,0.9
126,'Fort Myers',22.2,1,6,4,1,1.01955652,60.872606,1.05,0.95,1.1,0.9
127,'Fort Myers',22.2,1,6,4,1,1.01955009,60.873754,1.05,0.95,1.1,0.9
128,'Fort Myers',22.2,1,6,4,1,1.01955652,60.872606,1.05,0.95,1.1,0.9
129,'Fort Myers',22.2,1,6,4,1,1.01955009,60.873754,1.05,0.95,1.1,0.9
130,'Fort Myers',22.2,1,6,4,1,1.01955009,60.873754,1.05,0.95,1.1,0.9
131,'Sanford',15.6,2,6,2,1,1.01999998,74.192083,1.05,0.95,1.1,0.9
132,'Sanford',12.8,1,6,2,1,1.00590324,67.780625,1.05,0.95,1.1,0.9
133,'Sanford',22.2,2,6,2,1,1.01999998,75.56782,1.05,0.95,1.1,0.9
134,'Sanford',22.2,2,6,2,1,1.01999998,75.56782,1.05,0.95,1.1,0.9
135,'Sanford',15.6,2,6,2,1,1.01999998,74.191612,1.05,0.95,1.1,0.9
136,'Sanford',15.6,2,6,2,1,1.01999998,74.192083,1.05,0.95,1.1,0.9
137,'Sanford',15.6,2,6,2,1,1.01999998,74.191612,1.05,0.95,1.1,0.9
138,'Sanford',15.6,2,6,2,1,1.01999998,74.192083,1.05,0.95,1.1,0.9
139,'Sanford',15.6,2,6,2,1,1.01999998,74.192083,1.05,0.95,1.1,0.9
140,'Sanford',15.6,2,6,2,1,1.01999998,74.191612,1.05,0.95,1.1,0.9
141,'Sanford',15.6,2,6,2,1,1.01999998,74.192083,1.05,0.95,1.1,0.9
142,'Manatee',22.2,1,6,4,1,1.01073372,65.36239,1.05,0.95,1.1,0.9
143,'Manatee',22.2,2,6,4,1,1.01999998,71.417687,1.05,0.95,1.1,0.9
144,'Manatee',22.2,2,6,4,1,1.01999998,72.780399,1.05,0.95,1.1,0.9
145,'Manatee',15.6,1,6,4,1,1.01073372,65.36239,1.05,0.95,1.1,0.9
146,'Manatee',15.6,2,6,4,1,1.01999998,71.747012,1.05,0.95,1.1,0.9
147,'Manatee',15.6,1,6,4,1,1.01075017,65.360983,1.05,0.95,1.1,0.9
148,'Manatee',15.6,2,6,4,1,1.01999998,71.748501,1.05,0.95,1.1,0.9
149,'Martin',15.6,1,6,3,1,1.00940669,63.735084,1.05,0.95,1.1,0.9
150,'Martin',15.6,1,6,3,1,1.00940669,63.735084,1.05,0.95,1.1,0.9
151,'Martin',15.6,2,6,3,1,1.01999998,70.685696,1.05,0.95,1.1,0.9
152,'Martin',15.6,1,6,3,1,1.00940669,63.735084,1.05,0.95,1.1,0.9
153,'Martin',22.2,2,6,3,1,1.01999998,67.750982,1.05,0.95,1.1,0.9
154,'Martin',22.2,1,6,3,1,1.00941432,63.735125,1.05,0.95,1.1,0.9
155,'Martin',22.2,2,6,3,1,1.01999998,71.161863,1.05,0.95,1.1,0.9
156,'Martin',15.6,1,6,3,1,1.00941432,63.735125,1.05,0.95,1.1,0.9
157,'Martin',15.6,2,6,3,1,1.01999998,70.128134,1.05,0.95,1.1,0.9
158,'Martin',15.6,2,6,3,1,1.01999998,70.128134,1.05,0.95,1.1,0.9
159,'Martin',15.6,1,6,3,1,1.00940669,63.735084,1.05,0.95,1.1,0.9
160,'Martin',15.6,2,6,3,1,1.01999998,70.685703,1.05,0.95,1.1,0.9
161,'Martin',15.6,1,6,3,1,1.00941432,63.735125,1.05,0.95,1.1,0.9
162,'Turkey Point',22.2,2,6,3,1,1.01999998,66.997954,1.05,0.95,1.1,0.9
163,'Turkey Point',22.2,2,6,3,1,1.01999998,66.450405,1.05,0.95,1.1,0.9
164,'Turkey Point',22.2,1,6,3,1,1.01095283,59.028578,1.05,0.95,1.1,0.9
165,'Turkey Point',22.2,1,6,3,1,1.01095283,59.028578,1.05,0.95,1.1,0.9
166,'Turkey Point',15.6,2,6,3,1,1.01999998,65.407305,1.05,0.95,1.1,0.9
167,'Turkey Point',15.6,2,6,3,1,1.01999998,65.407305,1.05,0.95,1.1,0.9
168,'Turkey Point',15.6,2,6,3,1,1.01999998,65.407305,1.05,0.95,1.1,0.9
169,'Turkey Point',15.6,2,6,3,1,1.01999998,65.407305,1.05,0.95,1.1,0.9
170,'Lauderdale',8.32,2,6,3,1,1.01999998,60.829999,1.05,0.95,1.1,0.9
171,'Lauderdale',8.32,2,6,3,1,1.01999998,60.831591,1.05,0.95,1.1,0.9
172,'Lauderdale',8.32,2,6,3,1,1.01999998,60.831591,1.05,0.95,1.1,0.9
173,'Lauderdale',8.32,2,6,3,1,1.01999998,60.831591,1.05,0.95,1.1,0.9
174,'Lauderdale',8.32,2,6,3,1,1.01999998,60.829999,1.05,0.95,1.1,0.9
175,'Lauderdale',8.32,2,6,3,1,1.01999998,60.829999,1.05,0.95,1.1,0.9
176,'Lauderdale',8.32,2,6,3,1,1.01999998,60.829999,1.05,0.95,1.1,0.9
177,'Lauderdale',8.32,2,6,3,1,1.01999998,60.829999,1.05,0.95,1.1,0.9
178,'Lauderdale',8.32,2,6,3,1,1.01999998,60.831591,1.05,0.95,1.1,0.9
179,'Lauderdale',8.32,2,6,3,1,1.01999998,60.831591,1.05,0.95,1.1,0.9
180,'Lauderdale',8.32,2,6,3,1,1.01999998,60.831591,1.05,0.95,1.1,0.9
181,'Lauderdale',8.32,2,6,3,1,1.01999998,60.829999,1.05,0.95,1.1,0.9
182,'Lauderdale',8.32,2,6,3,1,1.01999998,60.831591,1.05,0.95,1.1,0.9
183,'Lauderdale',8.32,2,6,3,1,1.01999998,60.831591,1.05,0.95,1.1,0.9
184,'Lauderdale',8.32,2,6,3,1,1.01999998,60.831591,1.05,0.95,1.1,0.9
185,'Lauderdale',12.8,2,6,3,1,1.01999998,60.74385,1.05,0.95,1.1,0.9
186,'Lauderdale',12.8,2,6,3,1,1.01999998,60.74385,1.05,0.95,1.1,0.9
187,'Lauderdale',15.6,2,6,3,1,1.01999998,62.323441,1.05,0.95,1.1,0.9
188,'Lauderdale',15.6,2,6,3,1,1.01999998,62.325019,1.05,0.95,1.1,0.9
189,'Lauderdale',15.6,2,6,3,1,1.01999998,62.325019,1.05,0.95,1.1,0.9
190,'Lauderdale',15.6,2,6,3,1,1.01999998,62.325019,1.05,0.95,1.1,0.9
191,'Lauderdale',8.32,2,6,3,1,1.01999998,60.831591,1.05,0.95,1.1,0.9
192,'Lauderdale',8.32,2,6,3,1,1.01999998,60.831591,1.05,0.95,1.1,0.9
193,'Lauderdale',8.32,2,6,3,1,1.01999998,60.829999,1.05,0.95,1.1,0.9
194,'Lauderdale',8.32,2,6,3,1,1.01999998,60.831591,1.05,0.95,1.1,0.9
195,'Lauderdale',8.32,2,6,3,1,1.01999998,60.829999,1.05,0.95,1.1,0.9
196,'Lauderdale',8.32,2,6,3,1,1.01999998,60.829999,1.05,0.95,1.1,0.9
197,'Lauderdale',8.32,2,6,3,1,1.01999998,60.829999,1.05,0.95,1.1,0.9
198,'Lauderdale',8.32,2,6,3,1,1.01999998,60.831591,1.05,0.95,1.1,0.9
199,'Lauderdale',8.32,2,6,3,1,1.01999998,60.829999,1.05,0.95,1.1,0.9
200,'J D Kennedy',12.8,1,6,2,1,1.01156878,70.743951,1.05,0.95,1.1,0.9
...
0 / END OF BUS DATA BEGIN LOAD DATA
1000,'11',1,6,2,12.37,3.699,0.0,0.0,0.0,0.0,1,1,0
1001,'11',1,6,1,3.896,1.159,0.0,0.0,0.0,0.0,1,1,0
1002,'11',1,6,1,49.166,13.458,0.0,0.0,0.0,0.0,1,1,0
1003,'11',1,6,4,8.015,2.195,0.0,0.0,0.0,0.0,1,1,0
1004,'11',1,6,4,20.34,6.072,0.0,0.0,0.0,0.0,1,1,0
1005,'11',1,6,2,3.56,0.98,0.0,0.0,0.0,0.0,1,1,0
1006,'11',1,6,1,10.075,2.763,0.0,0.0,0.0,0.0,1,1,0
1007,'11',1,6,3,27.359,7.487,0.0,0.0,0.0,0.0,1,1,0
1008,'11',1,6,2,29.217,7.999,0.0,0.0,0.0,0.0,1,1,0
1009,'11',1,6,1,50.442,13.804,0.0,0.0,0.0,0.0,1,1,0
1010,'11',1,6,4,1.791,0.535,0.0,0.0,0.0,0.0,1,1,0
1011,'11',1,6,3,24.852,6.796,0.0,0.0,0.0,0.0,1,1,0
1012,'11',1,6,2,1.925,0.524,0.0,0.0,0.0,0.0,1,1,0
1013,'11',1,6,3,45.83,13.681,0.0,0.0,0.0,0.0,1,1,0
1014,'11',1,6,3,22.624,6.194,0.0,0.0,0.0,0.0,1,1,0
1015,'11',1,6,1,2.866,0.78,0.0,0.0,0.0,0.0,1,1,0
1016,'11',1,6,2,24.796,6.785,0.0,0.0,0.0,0.0,1,1,0
1017,'11',1,6,4,7.724,2.117,0.0,0.0,0.0,0.0,1,1,0
1018,'11',1,6,3,37.221,11.108,0.0,0.0,0.0,0.0,1,1,0
1019,'11',1,6,4,18.012,4.924,0.0,0.0,0.0,0.0,1,1,0
1020,'11',1,6,1,21.975,6.562,0.0,0.0,0.0,0.0,1,1,0
1021,'11',1,6,2,22.792,6.807,0.0,0.0,0.0,0.0,1,1,0
1022,'11',1,6,4,32.43,8.879,0.0,0.0,0.0,0.0,1,1,0
1023,'11',1,6,2,16.288,4.456,0.0,0.0,0.0,0.0,1,1,0
1024,'11',1,6,2,39.225,11.709,0.0,0.0,0.0,0.0,1,1,0
1025,'11',1,6,1,3.761,1.036,0.0,0.0,0.0,0.0,1,1,0
1026,'11',1,6,3,54.528,14.918,0.0,0.0,0.0,0.0,1,1,0
1027,'11',1,6,4,7.847,2.15,0.0,0.0,0.0,0.0,1,1,0
1028,'11',1,6,2,44.52,12.188,0.0,0.0,0.0,0.0,1,1,0
1029,'11',1,6,3,20.049,5.493,0.0,0.0,0.0,0.0,1,1,0
1030,'11',1,6,1,1.131,0.334,0.0,0.0,0.0,0.0,1,1,0
1031,'11',1,6,1,22.322,6.105,0.0,0.0,0.0,0.0,1,1,0
1032,'11',1,6,2,39.695,10.863,0.0,0.0,0.0,0.0,1,1,0
1033,'11',1,6,4,13.713,4.1,0.0,0.0,0.0,0.0,1,1,0
1034,'11',1,6,4,45.639,13.626,0.0,0.0,0.0,0.0,1,1,0
1035,'11',1,7,2,21.045,6.284,0.0,0.0,0.0,0.0,1,1,0
1036,'11',1,7,2,14.81,4.055,0.0,0.0,0.0,0.0,1,1,0
1037,'11',1,6,1,36.941,10.116,0.0,0.0,0.0,0.0,1,1,0
1038,'11',1,6,1,43.524,11.91,0.0,0.0,0.0,0.0,1,1,0
1039,'11',1,6,1,33.046,9.047,0.0,0.0,0.0,0.0,1,1,0
1040,'11',1,6,1,44.106,13.169,0.0,0.0,0.0,0.0,1,1,0
1041,'11',1,6,1,50.688,15.13,0.0,0.0,0.0,0.0,1,1,0
1042,'11',1,6,1,20.654,6.172,0.0,0.0,0.0,0.0,1,1,0
1043,'11',1,6,1,23.81,7.108,0.0,0.0,0.0,0.0,1,1,0
1044,'11',1,6,1,50.688,13.871,0.0,0.0,0.0,0.0,1,1,0
1045,'11',1,6,1,44.106,13.169,0.0,0.0,0.0,0.0,1,1,0
1046,'11',1,6,1,29.788,8.891,0.0,0.0,0.0,0.0,1,1,0
1047,'11',1,6,1,59.386,16.255,0.0,0.0,0.0,0.0,1,1,0
1048,'11',1,6,1,50.084,13.704,0.0,0.0,0.0,0.0,1,1,0
1049,'11',1,6,1,40.199,11.007,0.0,0.0,0.0,0.0,1,1,0
1050,'11',1,6,1,20.072,5.994,0.0,0.0,0.0,0.0,1,1,0
1051,'11',1,6,1,30.695,9.169,0.0,0.0,0.0,0.0,1,1,0
1052,'11',1,6,1,45.606,13.614,0.0,0.0,0.0,0.0,1,1,0
1053,'11',1,6,1,53.285,14.584,0.0,0.0,0.0,0.0,1,1,0
1054,'11',1,6,1,20.497,6.116,0.0,0.0,0.0,0.0,1,1,0
1055,'11',1,6,1,43.736,13.057,0.0,0.0,0.0,0.0,1,1,0
1056,'11',1,6,1,36.55,10.005,0.0,0.0,0.0,0.0,1,1,0
1057,'11',1,6,1,45.595,13.614,0.0,0.0,0.0,0.0,1,1,0
1058,'11',1,6,1,11.318,3.097,0.0,0.0,0.0,0.0,1,1,0
1059,'11',1,6,1,26.755,7.32,0.0,0.0,0.0,0.0,1,1,0
1060,'11',1,6,1,45.595,13.614,0.0,0.0,0.0,0.0,1,1,0
1061,'11',1,6,1,45.595,13.614,0.0,0.0,0.0,0.0,1,1,0
1062,'11',1,6,1,45.595,13.614,0.0,0.0,0.0,0.0,1,1,0
1063,'11',1,6,1,10.635,2.908,0.0,0.0,0.0,0.0,1,1,0
1064,'11',1,6,1,10.635,2.908,0.0,0.0,0.0,0.0,1,1,0
1065,'11',1,6,2,37.949,10.383,0.0,0.0,0.0,0.0,1,1,0
1066,'11',1,6,2,37.949,10.383,0.0,0.0,0.0,0.0,1,1,0
1067,'11',1,6,2,15.672,4.289,0.0,0.0,0.0,0.0,1,1,0
1068,'11',1,6,2,18.124,5.415,0.0,0.0,0.0,0.0,1,1,0
1069,'11',1,6,2,13.288,3.966,0.0,0.0,0.0,0.0,1,1,0
1070,'11',1,6,2,9.414,2.808,0.0,0.0,0.0,0.0,1,1,0
1071,'11',1,6,2,37.725,10.328,0.0,0.0,0.0,0.0,1,1,0
1072,'11',1,6,2,37.725,10.328,0.0,0.0,0.0,0.0,1,1,0
1073,'11',1,6,2,37.725,11.264,0.0,0.0,0.0,0.0,1,1,0
1074,'11',1,6,2,37.971,10.395,0.0,0.0,0.0,0.0,1,1,0
1075,'11',1,6,2,37.971,11.33,0.0,0.0,0.0,0.0,1,1,0
1076,'11',1,6,3,47.688,14.238,0.0,0.0,0.0,0.0,1,1,0
1077,'11',1,6,3,47.688,13.057,0.0,0.0,0.0,0.0,1,1,0
1078,'11',1,6,3,47.688,14.238,0.0,0.0,0.0,0.0,1,1,0
1079,'11',1,6,3,47.688,13.057,0.0,0.0,0.0,0.0,1,1,0
1080,'11',1,6,3,47.688,13.057,0.0,0.0,0.0,0.0,1,1,0
1081,'11',1,6,3,47.688,13.057,0.0,0.0,0.0,0.0,1,1,0
1082,'11',1,6,3,47.688,14.238,0.0,0.0,0.0,0.0,1,1,0
1083,'11',1,6,3,47.688,13.057,0.0,0.0,0.0,0.0,1,1,0
1084,'11',1,6,3,22.366,6.116,0.0,0.0,0.0,0.0,1,1,0
1085,'11',1,6,2,51.382,14.06,0.0,0.0,0.0,0.0,1,1,0
1086,'11',1,6,2,50.867,15.185,0.0,0.0,0.0,0.0,1,1,0
1087,'11',1,6,2,34.546,9.459,0.0,0.0,0.0,0.0,1,1,0
1088,'11',1,6,2,25.232,6.907,0.0,0.0,0.0,0.0,1,1,0
1089,'11',1,6,2,12.045,3.298,0.0,0.0,0.0,0.0,1,1,0
1090,'11',1,6,2,28.333,7.754,0.0,0.0,0.0,0.0,1,1,0
1091,'11',1,6,3,47.688,13.057,0.0,0.0,0.0,0.0,1,1,0
1092,'11',1,6,3,47.688,13.057,0.0,0.0,0.0,0.0,1,1,0
1093,'11',1,6,3,47.688,13.057,0.0,0.0,0.0,0.0,1,1,0
1094,'11',1,6,2,13.724,4.1,0.0,0.0,0.0,0.0,1,1,0
1095,'11',1,6,2,51.438,14.082,0.0,0.0,0.0,0.0,1,1,0
1096,'11',1,6,3,33.975,10.138,0.0,0.0,0.0,0.0,1,1,0
1097,'11',1,6,3,39.841,11.899,0.0,0.0,0.0,0.0,1,1,0
1098,'11',1,6,3,32.497,8.891,0.0,0.0,0.0,0.0,1,1,0
1099,'11',1,6,3,7.299,1.994,0.0,0.0,0.0,0.0,1,1,0
1100,'11',1,6,3,23.587,7.041,0.0,0.0,0.0,0.0,1,1,0
1101,'11',1,6,3,36.035,10.762,0.0,0.0,0.0,0.0,1,1,0
1102,'11',1,6,3,37.423,11.174,0.0,0.0,0.0,0.0,1,1,0
1103,'11',1,6,3,50.386,13.793,0.0,0.0,0.0,0.0,1,1,0
1104,'11',1,6,3,55.222,15.118,0.0,0.0,0.0,0.0,1,1,0
1105,'11',1,6,3,45.662,12.5,0.0,0.0,0.0,0.0,1,1,0
1106,'11',1,6,3,45.662,13.637,0.0,0.0,0.0,0.0,1,1,0
1107,'11',1,6,3,45.662,13.637,0.0,0.0,0.0,0.0,1,1,0
1108,'11',1,6,3,45.662,13.637,0.0,0.0,0.0,0.0,1,1,0
1109,'11',1,6,3,18.874,5.637,0.0,0.0,0.0,0.0,1,1,0
1110,'11',1,6,3,54.237,14.84,0.0,0.0,0.0,0.0,1,1,0
1111,'11',1,6,3,54.696,14.974,0.0,0.0,0.0,0.0,1,1,0
1112,'11',1,6,3,49.099,14.662,0.0,0.0,0.0,0.0,1,1,0
1113,'11',1,6,3,47.397,14.149,0.0,0.0,0.0,0.0,1,1,0
1114,'11',1,6,3,31.557,8.634,0.0,0.0,0.0,0.0,1,1,0
1115,'11',1,6,3,51.572,14.116,0.0,0.0,0.0,0.0,1,1,0
1116,'11',1,6,3,36.415,10.874,0.0,0.0,0.0,0.0,1,1,0
1117,'11',1,6,3,9.045,2.696,0.0,0.0,0.0,0.0,1,1,0
1118,'11',1,6,3,9.336,2.551,0.0,0.0,0.0,0.0,1,1,0
1119,'11',1,6,3,64.592,19.285,0.0,0.0,0.0,0.0,1,1,0
1120,'11',1,6,3,55.099,15.085,0.0,0.0,0.0,0.0,1,1,0
1121,'11',1,6,3,17.821,5.314,0.0,0.0,0.0,0.0,1,1,0
1122,'11',1,6,3,29.508,8.813,0.0,0.0,0.0,0.0,1,1,0
1123,'11',1,6,3,43.244,11.832,0.0,0.0,0.0,0.0,1,1,0
1124,'11',1,6,3,42.18,11.542,0.0,0.0,0.0,0.0,1,1,0
1125,'11',1,6,3,55.748,15.252,0.0,0.0,0.0,0.0,1,1,0
1126,'11',1,6,3,55.468,15.185,0.0,0.0,0.0,0.0,1,1,0
1127,'11',1,6,3,9.75,2.674,0.0,0.0,0.0,0.0,1,1,0
1128,'11',1,6,3,26.978,8.055,0.0,0.0,0.0,0.0,1,1,0
1129,'11',1,6,3,42.259,11.564,0.0,0.0,0.0,0.0,1,1,0
1130,'11',1,6,3,42.259,12.623,0.0,0.0,0.0,0.0,1,1,0
1131,'11',1,6,3,43.535,13.002,0.0,0.0,0.0,0.0,1,1,0
1132,'11',1,6,3,30.348,9.058,0.0,0.0,0.0,0.0,1,1,0
1133,'11',1,6,3,39.617,11.832,0.0,0.0,0.0,0.0,1,1,0
1134,'11',1,6,3,30.426,9.08,0.0,0.0,0.0,0.0,1,1,0
1135,'11',1,6,3,38.386,11.464,0.0,0.0,0.0,0.0,1,1,0
1136,'11',1,6,3,35.565,9.737,0.0,0.0,0.0,0.0,1,1,0
1137,'11',1,6,3,29.229,8.723,0.0,0.0,0.0,0.0,1,1,0
1138,'11',1,6,3,45.673,12.5,0.0,0.0,0.0,0.0,1,1,0
1139,'11',1,6,3,12.079,3.61,0.0,0.0,0.0,0.0,1,1,0
1140,'11',1,6,3,32.833,9.804,0.0,0.0,0.0,0.0,1,1,0
1141,'11',1,6,3,34.266,10.228,0.0,0.0,0.0,0.0,1,1,0
1142,'11',1,6,3,14.81,4.423,0.0,0.0,0.0,0.0,1,1,0
1143,'11',1,6,3,47.811,13.091,0.0,0.0,0.0,0.0,1,1,0
1144,'11',1,6,3,42.561,12.712,0.0,0.0,0.0,0.0,1,1,0
1145,'11',1,6,3,6.302,1.727,0.0,0.0,0.0,0.0,1,1,0
1146,'11',1,6,3,4.601,1.259,0.0,0.0,0.0,0.0,1,1,0
1147,'11',1,6,3,43.255,12.912,0.0,0.0,0.0,0.0,1,1,0
1148,'11',1,6,3,44.778,13.369,0.0,0.0,0.0,0.0,1,1,0
1149,'11',1,6,3,39.818,10.896,0.0,0.0,0.0,0.0,1,1,0
1150,'11',1,6,3,14.519,4.334,0.0,0.0,0.0,0.0,1,1,0
1151,'11',1,6,3,24.717,6.763,0.0,0.0,0.0,0.0,1,1,0
1152,'11',1,6,3,41.039,12.255,0.0,0.0,0.0,0.0,1,1,0
1153,'11',1,6,3,48.584,13.302,0.0,0.0,0.0,0.0,1,1,0
1154,'11',1,6,3,46.983,14.027,0.0,0.0,0.0,0.0,1,1,0
1155,'11',1,6,3,45.225,13.503,0.0,0.0,0.0,0.0,1,1,0
1156,'11',1,6,3,24.65,7.364,0.0,0.0,0.0,0.0,1,1,0
1157,'11',1,6,3,42.326,12.634,0.0,0.0,0.0,0.0,1,1,0
1158,'11',1,6,3,29.464,8.066,0.0,0.0,0.0,0.0,1,1,0
1159,'11',1,6,3,40.994,12.244,0.0,0.0,0.0,0.0,1,1,0
1160,'11',1,6,3,8.34,2.484,0.0,0.0,0.0,0.0,1,1,0
1161,'11',1,6,3,7.679,2.106,0.0,0.0,0.0,0.0,1,1,0
1162,'11',1,6,3,17.665,4.835,0.0,0.0,0.0,0.0,1,1,0
1163,'11',1,6,3,37.971,10.395,0.0,0.0,0.0,0.0,1,1,0
1164,'11',1,6,3,41.979,11.486,0.0,0.0,0.0,0.0,1,1,0
1165,'11',1,6,3,40.165,10.996,0.0,0.0,0.0,0.0,1,1,0
1166,'11',1,6,3,2.709,0.735,0.0,0.0,0.0,0.0,1,1,0
1167,'11',1,6,3,11.228,3.353,0.0,0.0,0.0,0.0,1,1,0
1168,'11',1,6,3,44.699,12.233,0.0,0.0,0.0,0.0,1,1,0
1169,'11',1,6,3,35.038,9.592,0.0,0.0,0.0,0.0,1,1,0
1170,'11',1,6,3,46.848,12.823,0.0,0.0,0.0,0.0,1,1,0
1171,'11',1,6,3,36.326,9.938,0.0,0.0,0.0,0.0,1,1,0
1172,'11',1,6,3,36.326,10.851,0.0,0.0,0.0,0.0,1,1,0
1173,'11',1,6,3,43.916,13.113,0.0,0.0,0.0,0.0,1,1,0
1174,'11',1,6,3,32.878,9.002,0.0,0.0,0.0,0.0,1,1,0
1175,'11',1,6,3,23.374,6.974,0.0,0.0,0.0,0.0,1,1,0
1176,'11',1,6,3,16.31,4.468,0.0,0.0,0.0,0.0,1,1,0
1177,'11',1,6,3,34.367,9.403,0.0,0.0,0.0,0.0,1,1,0
1178,'11',1,6,3,4.422,1.326,0.0,0.0,0.0,0.0,1,1,0
1179,'11',1,6,3,44.699,13.347,0.0,0.0,0.0,0.0,1,1,0
1180,'11',1,6,3,35.072,9.604,0.0,0.0,0.0,0.0,1,1,0
1181,'11',1,6,3,47.072,14.049,0.0,0.0,0.0,0.0,1,1,0
1182,'11',1,6,3,32.016,8.757,0.0,0.0,0.0,0.0,1,1,0
1183,'11',1,6,3,42.427,12.667,0.0,0.0,0.0,0.0,1,1,0
1184,'11',1,6,3,42.886,11.743,0.0,0.0,0.0,0.0,1,1,0
1185,'11',1,6,1,19.21,5.259,0.0,0.0,0.0,0.0,1,1,0
1186,'11',1,6,4,7.5,2.05,0.0,0.0,0.0,0.0,1,1,0
1187,'11',1,6,4,13.791,4.122,0.0,0.0,0.0,0.0,1,1,0
1188,'11',1,6,4,15.381,4.211,0.0,0.0,0.0,0.0,1,1,0
1189,'11',1,6,4,4.008,1.192,0.0,0.0,0.0,0.0,1,1,0
1190,'11',1,6,4,7.209,2.15,0.0,0.0,0.0,0.0,1,1,0
1191,'11',1,6,4,5.72,1.705,0.0,0.0,0.0,0.0,1,1,0
1192,'11',1,6,4,3.493,0.958,0.0,0.0,0.0,0.0,1,1,0
1193,'11',1,6,4,4.355,1.192,0.0,0.0,0.0,0.0,1,1,0
1194,'11',1,6,4,3.616,0.992,0.0,0.0,0.0,0.0,1,1,0
1195,'11',1,6,4,16.422,4.49,0.0,0.0,0.0,0.0,1,1,0
1196,'11',1,6,4,22.176,6.618,0.0,0.0,0.0,0.0,1,1,0
1197,'11',1,6,4,22.176,6.618,0.0,0.0,0.0,0.0,1,1,0
1198,'11',1,6,4,3.056,0.914,0.0,0.0,0.0,0.0,1,1,0
1199,'11',1,6,1,10.702,3.197,0.0,0.0,0.0,0.0,1,1,0
...
0 / END OF LOAD DATA BEGIN FIXED SHUNT DATA
0 / END OF FIXED SHUNT DATA BEGIN GENERATOR DATA
1,'G1',1078.32,109.921,523.1,-360.0,1.02,0,100.0,0.0,1.0,0.0,0.0,1.0,1,100.0,1080.0,987.0,1,1.0,0,1.0,0,1.0,0,1.0,0,1.0
2,'G2',1078.32,109.921,523.1,-360.0,1.02,0,100.0,0.0,1.0,0.0,0.0,1.0,1,100.0,1080.0,981.0,1,1.0,0,1.0,0,1.0,0,1.0,0,1.0
3,'G1',734.755,104.039,356.4,-245.3,1.02,0,100.0,0.0,1.0,0.0,0.0,1.0,1,100.0,735.9,350.0,1,1.0,0,1.0,0,1.0,0,1.0,0,1.0
4,'G2',734.755,104.039,356.4,-245.3,1.02,0,100.0,0.0,1.0,0.0,0.0,1.0,1,100.0,735.9,350.0,1,1.0,0,1.0,0,1.0,0,1.0,0,1.0
5,'G1',677.944,124.711,328.9,-226.3,1.02,0,100.0,0.0,1.0,0.0,0.0,1.0,1,100.0,679.0,200.0,1,1.0,0,1.0,0,1.0,0,1.0,0,1.0
6,'G2',677.944,124.711,328.9,-226.3,1.02,0,100.0,0.0,1.0,0.0,0.0,1.0,1,100.0,679.0,200.0,1,1.0,0,1.0,0,1.0,0,1.0,0,1.0
7,'G1',429.117,102.97,269.4,-185.4,1.02,0,100.0,0.0,1.0,0.0,0.0,1.0,1,100.0,556.2,90.0,1,1.0,0,1.0,0,1.0,0,1.0,0,1.0
8,'G2',429.117,102.955,269.4,-185.4,1.02,0,100.0,0.0,1.0,0.0,0.0,1.0,1,100.0,556.2,80.0,1,1.0,0,1.0,0,1.0,0,1.0,0,1.0
9,'G1',202.884,32.055,125.9,-67.7,1.02,0,100.0,0.0,1.0,0.0,0.0,1.0,1,100.0,203.2,155.0,1,1.0,0,1.0,0,1.0,0,1.0,0,1.0
10,'G2',463.777,75.363,225.0,-154.8,1.02,0,100.0,0.0,1.0,0.0,0.0,1.0,1,100.0,464.5,95.0,1,1.0,0,1.0,0,1.0,0,1.0,0,1.0
11,'G3',463.777,75.338,225.0,-154.8,1.02,0,100.0,0.0,1.0,0.0,0.0,1.0,1,100.0,464.5,90.0,1,1.0,0,1.0,0,1.0,0,1.0,0,1.0
12,'G4',129.598,21.009,80.4,-43.3,1.02,0,100.0,0.0,1.0,0.0,0.0,1.0,1,100.0,129.8,68.79,1,1.0,0,1.0,0,1.0,0,1.0,0,1.0
13,'G1',47.834,8.048,38.4,-20.7,1.02,0,100.0,0.0,1.0,0.0,0.0,1.0,1,100.0,62.0,14.0,1,1.0,0,1.0,0,1.0,0,1.0,0,1.0
14,'G2',444.807,67.133,215.8,-148.5,1.02,0,100.0,0.0,1.0,0.0,0.0,1.0,1,100.0,445.5,190.0,1,1.0,0,1.0,0,1.0,0,1.0,0,1.0
15,'G3',444.807,67.133,215.8,-148.5,1.02,0,100.0,0.0,1.0,0.0,0.0,1.0,1,100.0,445.5,185.0,1,1.0,0,1.0,0,1.0,0,1.0,0,1.0
16,'G4',444.807,67.121,215.8,-148.5,1.02,0,100.0,0.0,1.0,0.0,0.0,1.0,1,100.0,445.5,185.0,1,1.0,0,1.0,0,1.0,0,1.0,0,1.0
17,'G5',485.244,73.408,235.4,-162.0,1.02,0,100.0,0.0,1.0,0.0,0.0,1.0,1,100.0,486.0,157.0,1,1.0,0,1.0,0,1.0,0,1.0,0,1.0
18,'G1',734.929,116.712,358.0,-246.4,1.02,0,100.0,0.0,1.0,0.0,0.0,1.0,1,100.0,739.2,225.0,1,1.0,0,1.0,0,1.0,0,1.0,0,1.0
19,'G2',738.05,117.107,358.0,-246.4,1.02,0,100.0,0.0,1.0,0.0,0.0,1.0,1,100.0,739.2,225.0,1,1.0,0,1.0,0,1.0,0,1.0,0,1.0
20,'G3',889.015,141.905,431.2,-296.8,1.02,0,100.0,0.0,1.0,0.0,0.0,1.0,1,100.0,890.4,311.64,1,1.0,0,1.0,0,1.0,0,1.0,0,1.0
21,'G4',439.815,69.982,213.3,-146.8,1.02,0,100.0,0.0,1.0,0.0,0.0,1.0,1,100.0,440.5,100.0,1,1.0,0,1.0,0,1.0,0,1.0,0,1.0
22,'G5',522.985,83.246,253.7,-174.6,1.02,0,100.0,0.0,1.0,0.0,0.0,1.0,1,100.0,523.8,120.0,1,1.0,0,1.0,0,1.0,0,1.0,0,1.0
23,'G1',0.0,0.0,182.0,-182.0,1.02,0,100.0,0.0,1.0,0.0,0.0,1.0,0,100.0,402.0,80.4,1,1.0,0,1.0,0,1.0,0,1.0,0,1.0
24,'G2',0.0,0.0,182.0,-182.0,1.02,0,100.0,0.0,1.0,0.0,0.0,1.0,0,100.0,402.0,80.4,1,1.0,0,1.0,0,1.0,0,1.0,0,1.0
25,'G1',0.0,0.0,61.0,-42.0,1.02,0,100.0,0.0,1.0,0.0,0.0,1.0,0,100.0,126.0,30.0,1,1.0,0,1.0,0,1.0,0,1.0,0,1.0
26,'G2',0.0,0.0,12.9,-8.9,1.02,0,100.0,0.0,1.0,0.0,0.0,1.0,0,100.0,26.6,3.0,1,1.0,0,1.0,0,1.0,0,1.0,0,1.0
27,'G3',0.0,0.0,50.1,-34.5,1.02,0,100.0,0.0,1.0,0.0,0.0,1.0,0,100.0,103.5,25.0,1,1.0,0,1.0,0,1.0,0,1.0,0,1.0
28,'G4',0.0,0.0,120.6,-83.0,1.02,0,100.0,0.0,1.0,0.0,0.0,1.0,0,100.0,249.0,140.0,1,1.0,0,1.0,0,1.0,0,1.0,0,1.0
29,'G5',363.234,100.868,176.2,-121.3,1.02,0,100.0,0.0,1.0,0.0,0.0,1.0,1,100.0,363.8,180.0,1,1.0,0,1.0,0,1.0,0,1.0,0,1.0
30,'G6',0.0,0.0,58.1,-40.0,1.02,0,100.0,0.0,1.0,0.0,0.0,1.0,0,100.0,120.0,120.0,1,1.0,0,1.0,0,1.0,0,1.0,0,1.0
31,'G1',126.441,0.397,140.5,-140.5,1.02,0,100.0,0.0,1.0,0.0,0.0,1.0,1,100.0,310.4,62.08,1,1.0,0,1.0,0,1.0,0,1.0,0,1.0
32,'G2',126.441,0.397,140.5,-140.5,1.02,0,100.0,0.0,1.0,0.0,0.0,1.0,1,100.0,310.4,62.08,1,1.0,0,1.0,0,1.0,0,1.0,0,1.0
33,'G1',526.18,82.192,326.6,-175.7,1.02,0,100.0,0.0,1.0,0.0,0.0,1.0,1,100.0,527.0,350.0,1,1.0,0,1.0,0,1.0,0,1.0,0,1.0
34,'G2',526.18,82.192,326.6,-175.7,1.02,0,100.0,0.0,1.0,0.0,0.0,1.0,1,100.0,527.0,350.0,1,1.0,0,1.0,0,1.0,0,1.0,0,1.0
35,'G3',0.0,0.0,184.7,-99.3,1.02,0,100.0,0.0,1.0,0.0,0.0,1.0,0,100.0,298.0,232.0,1,1.0,0,1.0,0,1.0,0,1.0,0,1.0
36,'G4',297.536,46.98,184.7,-99.3,1.02,0,100.0,0.0,1.0,0.0,0.0,1.0,1,100.0,298.0,232.0,1,1.0,0,1.0,0,1.0,0,1.0,0,1.0
37,'G5',0.0,0.0,184.7,-99.3,1.02,0,100.0,0.0,1.0,0.0,0.0,1.0,0,100.0,298.0,232.0,1,1.0,0,1.0,0,1.0,0,1.0,0,1.0
38,'G6',0.0,0.0,184.7,-99.3,1.02,0,100.0,0.0,1.0,0.0,0.0,1.0,0,100.0,298.0,232.0,1,1.0,0,1.0,0,1.0,0,1.0,0,1.0
39,'G7',297.536,46.932,184.7,-99.3,1.02,0,100.0,0.0,1.0,0.0,0.0,1.0,1,100.0,298.0,232.0,1,1.0,0,1.0,0,1.0,0,1.0,0,1.0
40,'G8',0.0,0.0,184.7,-99.3,1.02,0,100.0,0.0,1.0,0.0,0.0,1.0,0,100.0,298.0,232.0,1,1.0,0,1.0,0,1.0,0,1.0,0,1.0
41,'G1',0.0,0.0,30.1,-20.7,1.02,0,100.0,0.0,1.0,0.0,0.0,1.0,0,100.0,62.1,15.0,1,1.0,0,1.0,0,1.0,0,1.0,0,1.0
42,'G2',0.0,0.0,30.1,-20.7,1.02,0,100.0,0.0,1.0,0.0,0.0,1.0,0,100.0,62.1,15.0,1,1.0,0,1.0,0,1.0,0,1.0,0,1.0
43,'G3',30.514,9.957,30.1,-20.7,1.02,0,100.0,0.0,1.0,0.0,0.0,1.0,1,100.0,62.1,15.0,1,1.0,0,1.0,0,1.0,0,1.0,0,1.0
44,'G4',30.514,9.961,30.1,-20.7,1.02,0,100.0,0.0,1.0,0.0,0.0,1.0,1,100.0,62.1,15.0,1,1.0,0,1.0,0,1.0,0,1.0,0,1.0
45,'G5',102.741,72.24,273.0,-187.9,1.02,0,100.0,0.0,1.0,0.0,0.0,1.0,1,100.0,563.7,50.0,1,1.0,0,1.0,0,1.0,0,1.0,0,1.0
46,'G6',297.037,56.99,184.4,-99.2,1.02,0,100.0,0.0,1.0,0.0,0.0,1.0,1,100.0,297.5,180.0,1,1.0,0,1.0,0,1.0,0,1.0,0,1.0
47,'G7',297.037,56.973,184.4,-99.2,1.02,0,100.0,0.0,1.0,0.0,0.0,1.0,1,100.0,297.5,180.0,1,1.0,0,1.0,0,1.0,0,1.0,0,1.0
48,'G1',291.146,58.871,180.7,-97.2,1.02,0,100.0,0.0,1.0,0.0,0.0,1.0,1,100.0,291.6,90.0,1,1.0,0,1.0,0,1.0,0,1.0,0,1.0
49,'G1',16.143,8.243,15.2,-8.2,1.02,0,100.0,0.0,1.0,0.0,0.0,1.0,1,100.0,24.6,3.0,1,1.0,0,1.0,0,1.0,0,1.0,0,1.0
50,'G2',16.143,8.243,15.2,-8.2,1.02,0,100.0,0.0,1.0,0.0,0.0,1.0,1,100.0,24.6,3.0,1,1.0,0,1.0,0,1.0,0,1.0,0,1.0
51,'G3',57.864,21.199,46.5,-25.0,1.02,0,100.0,0.0,1.0,0.0,0.0,1.0,1,100.0,75.0,21.0,1,1.0,0,1.0,0,1.0,0,1.0,0,1.0
52,'G4',95.951,26.613,59.6,-32.0,1.02,0,100.0,0.0,1.0,0.0,0.0,1.0,1,100.0,96.1,50.0,1,1.0,0,1.0,0,1.0,0,1.0,0,1.0
53,'G5',250.31,65.413,155.4,-83.6,1.02,0,100.0,0.0,1.0,0.0,0.0,1.0,1,100.0,250.7,65.0,1,1.0,0,1.0,0,1.0,0,1.0,0,1.0
54,'G1',169.425,23.999,136.1,-73.2,1.02,0,100.0,0.0,1.0,0.0,0.0,1.0,1,100.0,219.6,80.0,1,1.0,0,1.0,0,1.0,0,1.0,0,1.0
55,'G2',147.977,21.428,118.9,-63.9,1.02,0,100.0,0.0,1.0,0.0,0.0,1.0,1,100.0,191.8,65.0,1,1.0,0,1.0,0,1.0,0,1.0,0,1.0
56,'G1',42.742,13.803,26.8,-18.5,1.02,0,100.0,0.0,1.0,0.0,0.0,1.0,1,100.0,55.4,20.0,1,1.0,0,1.0,0,1.0,0,1.0,0,1.0
57,'G2',42.742,13.799,26.8,-18.5,1.02,0,100.0,0.0,1.0,0.0,0.0,1.0,1,100.0,55.4,20.0,1,1.0,0,1.0,0,1.0,0,1.0,0,1.0
58,'G3',42.742,13.799,26.8,-18.5,1.02,0,100.0,0.0,1.0,0.0,0.0,1.0,1,100.0,55.4,20.0,1,1.0,0,1.0,0,1.0,0,1.0,0,1.0
59,'G4',42.742,13.799,26.8,-18.5,1.02,0,100.0,0.0,1.0,0.0,0.0,1.0,1,100.0,55.4,20.0,1,1.0,0,1.0,0,1.0,0,1.0,0,1.0
60,'G5',324.962,107.439,204.0,-140.4,1.02,0,100.0,0.0,1.0,0.0,0.0,1.0,1,100.0,421.2,151.63,1,1.0,0,1.0,0,1.0,0,1.0,0,1.0
61,'G6',0.0,0.0,129.0,-69.4,1.02,0,100.0,0.0,1.0,0.0,0.0,1.0,0,100.0,208.2,93.69,1,1.0,0,1.0,0,1.0,0,1.0,0,1.0
62,'G7',0.0,0.0,129.0,-69.4,1.02,0,100.0,0.0,1.0,0.0,0.0,1.0,0,100.0,208.2,93.69,1,1.0,0,1.0,0,1.0,0,1.0,0,1.0
63,'G8',190.073,58.595,129.0,-69.4,1.02,0,100.0,0.0,1.0,0.0,0.0,1.0,1,100.0,208.2,93.69,1,1.0,0,1.0,0,1.0,0,1.0,0,1.0
64,'G9',190.073,58.579,129.0,-69.4,1.02,0,100.0,0.0,1.0,0.0,0.0,1.0,1,100.0,208.2,93.69,1,1.0,0,1.0,0,1.0,0,1.0,0,1.0
65,'G1',0.0,0.0,123.9,-66.7,1.02,0,100.0,0.0,1.0,0.0,0.0,1.0,0,100.0,200.0,100.0,1,1.0,0,1.0,0,1.0,0,1.0,0,1.0
66,'G2',0.0,0.0,123.9,-66.7,1.02,0,100.0,0.0,1.0,0.0,0.0,1.0,0,100.0,200.0,100.0,1,1.0,0,1.0,0,1.0,0,1.0,0,1.0
67,'G3',0.0,0.0,123.9,-66.7,1.02,0,100.0,0.0,1.0,0.0,0.0,1.0,0,100.0,200.0,100.0,1,1.0,0,1.0,0,1.0,0,1.0,0,1.0
68,'G1',192.699,50.69,123.9,-66.7,1.02,0,100.0,0.0,1.0,0.0,0.0,1.0,1,100.0,200.0,95.0,1,1.0,0,1.0,0,1.0,0,1.0,0,1.0
69,'G2',74.384,21.722,46.2,-24.8,1.02,0,100.0,0.0,1.0,0.0,0.0,1.0,1,100.0,74.5,50.0,1,1.0,0,1.0,0,1.0,0,1.0,0,1.0
70,'G1',199.09,17.064,123.6,-66.5,1.02,0,100.0,0.0,1.0,0.0,0.0,1.0,1,100.0,199.4,100.0,1,1.0,0,1.0,0,1.0,0,1.0,0,1.0
71,'G2',0.0,0.0,123.6,-66.5,1.02,0,100.0,0.0,1.0,0.0,0.0,1.0,0,100.0,199.4,100.0,1,1.0,0,1.0,0,1.0,0,1.0,0,1.0
72,'G1',0.0,0.0,123.3,-66.3,1.02,0,100.0,0.0,1.0,0.0,0.0,1.0,0,100.0,199.0,80.0,1,1.0,0,1.0,0,1.0,0,1.0,0,1.0
73,'G2',0.0,0.0,123.3,-66.3,1.02,0,100.0,0.0,1.0,0.0,0.0,1.0,0,100.0,199.0,80.0,1,1.0,0,1.0,0,1.0,0,1.0,0,1.0
74,'G3',0.0,0.0,117.1,-63.0,1.02,0,100.0,0.0,1.0,0.0,0.0,1.0,0,100.0,189.0,45.0,1,1.0,0,1.0,0,1.0,0,1.0,0,1.0
75,'G1',46.291,0.523,37.2,-20.0,1.02,0,100.0,0.0,1.0,0.0,0.0,1.0,1,100.0,60.0,12.0,1,1.0,0,1.0,0,1.0,0,1.0,0,1.0
76,'G2',46.291,0.523,37.2,-20.0,1.02,0,100.0,0.0,1.0,0.0,0.0,1.0,1,100.0,60.0,12.0,1,1.0,0,1.0,0,1.0,0,1.0,0,1.0
77,'G3',20.831,0.049,16.7,-9.0,1.02,0,100.0,0.0,1.0,0.0,0.0,1.0,1,100.0,27.0,3.0,1,1.0,0,1.0,0,1.0,0,1.0,0,1.0
78,'G4',60.886,0.884,46.5,-25.0,1.02,0,100.0,0.0,1.0,0.0,0.0,1.0,1,100.0,75.0,30.0,1,1.0,0,1.0,0,1.0,0,1.0,0,1.0
79,'G5',243.428,9.723,160.6,-86.4,1.02,0,100.0,0.0,1.0,0.0,0.0,1.0,1,100.0,259.2,120.0,1,1.0,0,1.0,0,1.0,0,1.0,0,1.0
80,'G6',153.454,4.313,123.3,-66.3,1.02,0,100.0,0.0,1.0,0.0,0.0,1.0,1,100.0,198.9,70.0,1,1.0,0,1.0,0,1.0,0,1.0,0,1.0
81,'G1',198.491,35.048,123.2,-66.3,1.02,0,100.0,0.0,1.0,0.0,0.0,1.0,1,100.0,198.8,102.0,1,1.0,0,1.0,0,1.0,0,1.0,0,1.0
82,'G2',0.0,0.0,123.3,-66.3,1.02,0,100.0,0.0,1.0,0.0,0.0,1.0,0,100.0,198.9,102.0,1,1.0,0,1.0,0,1.0,0,1.0,0,1.0
83,'G3',0.0,0.0,123.3,-66.3,1.02,0,100.0,0.0,1.0,0.0,0.0,1.0,0,100.0,198.9,102.0,1,1.0,0,1.0,0,1.0,0,1.0,0,1.0
84,'G4',0.0,0.0,123.3,-66.3,1.02,0,100.0,0.0,1.0,0.0,0.0,1.0,0,100.0,198.9,102.0,1,1.0,0,1.0,0,1.0,0,1.0,0,1.0
85,'G5',0.0,0.0,123.3,-66.3,1.02,0,100.0,0.0,1.0,0.0,0.0,1.0,0,100.0,198.9,102.0,1,1.0,0,1.0,0,1.0,0,1.0,0,1.0
86,'G1',0.0,0.0,121.0,-65.1,1.02,0,100.0,0.0,1.0,0.0,0.0,1.0,0,100.0,195.2,131.0,1,1.0,0,1.0,0,1.0,0,1.0,0,1.0
87,'G2',0.0,0.0,51.4,-27.6,1.02,0,100.0,0.0,1.0,0.0,0.0,1.0,0,100.0,82.9,71.0,1,1.0,0,1.0,0,1.0,0,1.0,0,1.0
88,'G1',175.527,13.467,85.1,-58.6,1.02,0,100.0,0.0,1.0,0.0,0.0,1.0,1,100.0,175.8,89.0,1,1.0,0,1.0,0,1.0,0,1.0,0,1.0
89,'G2',175.527,13.477,85.1,-58.6,1.02,0,100.0,0.0,1.0,0.0,0.0,1.0,1,100.0,175.8,89.0,1,1.0,0,1.0,0,1.0,0,1.0,0,1.0
90,'G3',192.6,14.366,114.5,-64.3,1.02,0,100.0,0.0,1.0,0.0,0.0,1.0,1,100.0,192.9,89.0,1,1.0,0,1.0,0,1.0,0,1.0,0,1.0
91,'G4',175.527,13.026,109.0,-58.6,1.02,0,100.0,0.0,1.0,0.0,0.0,1.0,1,100.0,175.8,89.0,1,1.0,0,1.0,0,1.0,0,1.0,0,1.0
92,'G5',175.527,13.026,109.0,-58.6,1.02,0,100.0,0.0,1.0,0.0,0.0,1.0,1,100.0,175.8,89.0,1,1.0,0,1.0,0,1.0,0,1.0,0,1.0
93,'G6',133.192,9.329,82.7,-44.5,1.02,0,100.0,0.0,1.0,0.0,0.0,1.0,1,100.0,133.4,33.0,1,1.0,0,1.0,0,1.0,0,1.0,0,1.0
94,'G1',200.594,59.848,161.1,-86.7,1.02,0,100.0,0.0,1.0,0.0,0.0,1.0,1,100.0,260.0,60.0,1,1.0,0,1.0,0,1.0,0,1.0,0,1.0
95,'G2',191.801,47.009,119.1,-64.0,1.02,0,100.0,0.0,1.0,0.0,0.0,1.0,1,100.0,192.1,100.0,1,1.0,0,1.0,0,1.0,0,1.0,0,1.0
96,'G3',0.0,0.0,119.1,-64.0,1.02,0,100.0,0.0,1.0,0.0,0.0,1.0,0,100.0,192.1,100.0,1,1.0,0,1.0,0,1.0,0,1.0,0,1.0
97,'10',0.0,0.0,92.0,-63.3,1.02,0,100.0,0.0,1.0,0.0,0.0,1.0,0,100.0,189.9,78.0,1,1.0,0,1.0,0,1.0,0,1.0,0,1.0
98,'11',0.0,0.0,92.0,-63.3,1.02,0,100.0,0.0,1.0,0.0,0.0,1.0,0,100.0,189.9,78.0,1,1.0,0,1.0,0,1.0,0,1.0,0,1.0
99,'12',0.0,0.0,92.0,-63.3,1.02,0,100.0,0.0,1.0,0.0,0.0,1.0,0,100.0,189.9,78.0,1,1.0,0,1.0,0,1.0,0,1.0,0,1.0
100,'13',0.0,0.0,148.4,-79.8,1.02,0,100.0,0.0,1.0,0.0,0.0,1.0,0,100.0,239.4,47.0,1,1.0,0,1.0,0,1.0,0,1.0,0,1.0
101,'G1',0.0,0.0,43.3,-23.3,1.02,0,100.0,0.0,1.0,0.0,0.0,1.0,0,100.0,69.9,14.0,1,1.0,0,1.0,0,1.0,0,1.0,0,1.0
102,'G2',0.0,0.0,43.3,-23.3,1.02,0,100.0,0.0,1.0,0.0,0.0,1.0,0,100.0,69.9,14.0,1,1.0,0,1.0,0,1.0,0,1.0,0,1.0
103,'G3',0.0,0.0,43.3,-23.3,1.02,0,100.0,0.0,1.0,0.0,0.0,1.0,0,100.0,69.9,14.0,1,1.0,0,1.0,0,1.0,0,1.0,0,1.0
104,'G4',0.0,0.0,43.3,-23.3,1.02,0,100.0,0.0,1.0,0.0,0.0,1.0,0,100.0,69.9,14.0,1,1.0,0,1.0,0,1.0,0,1.0,0,1.0
105,'G5',0.0,0.0,215.9,-148.6,1.02,0,100.0,0.0,1.0,0.0,0.0,1.0,0,100.0,445.7,52.0,1,1.0,0,1.0,0,1.0,0,1.0,0,1.0
106,'G6',0.0,0.0,92.0,-63.3,1.02,0,100.0,0.0,1.0,0.0,0.0,1.0,0,100.0,189.9,78.0,1,1.0,0,1.0,0,1.0,0,1.0,0,1.0
107,'G7',0.0,0.0,92.0,-63.3,1.02,0,100.0,0.0,1.0,0.0,0.0,1.0,0,100.0,189.9,78.0,1,1.0,0,1.0,0,1.0,0,1.0,0,1.0
108,'G8',0.0,0.0,92.0,-63.3,1.02,0,100.0,0.0,1.0,0.0,0.0,1.0,0,100.0,189.9,78.0,1,1.0,0,1.0,0,1.0,0,1.0,0,1.0
109,'G9',0.0,0.0,92.0,-63.3,1.02,0,100.0,0.0,1.0,0.0,0.0,1.0,0,100.0,189.9,78.0,1,1.0,0,1.0,0,1.0,0,1.0,0,1.0
110,'10',47.834,0.942,30.0,-20.7,1.02,0,100.0,0.0,1.0,0.0,0.0,1.0,1,100.0,62.0,5.0,1,1.0,0,1.0,0,1.0,0,1.0,0,1.0
111,'11',0.0,0.0,30.0,-20.7,1.02,0,100.0,0.0,1.0,0.0,0.0,1.0,0,100.0,62.0,5.0,1,1.0,0,1.0,0,1.0,0,1.0,0,1.0
112,'12',0.0,0.0,30.0,-20.7,1.02,0,100.0,0.0,1.0,0.0,0.0,1.0,0,100.0,62.0,5.0,1,1.0,0,1.0,0,1.0,0,1.0,0,1.0
113,'13',0.0,0.0,30.0,-20.7,1.02,0,100.0,0.0,1.0,0.0,0.0,1.0,0,100.0,62.0,5.0,1,1.0,0,1.0,0,1.0,0,1.0,0,1.0
114,'14',0.0,0.0,112.2,-60.3,1.02,0,100.0,0.0,1.0,0.0,0.0,1.0,0,100.0,181.0,159.0,1,1.0,0,1.0,0,1.0,0,1.0,0,1.0
115,'15',139.644,4.737,112.2,-60.3,1.02,0,100.0,0.0,1.0,0.0,0.0,1.0,1,100.0,181.0,19.0,1,1.0,0,1.0,0,1.0,0,1.0,0,1.0
116,'17',0.0,0.0,116.6,-62.7,1.02,0,100.0,0.0,1.0,0.0,0.0,1.0,0,100.0,188.2,90.0,1,1.0,0,1.0,0,1.0,0,1.0,0,1.0
117,'18',182.553,7.833,116.6,-62.7,1.02,0,100.0,0.0,1.0,0.0,0.0,1.0,1,100.0,188.2,90.0,1,1.0,0,1.0,0,1.0,0,1.0,0,1.0
118,'19',0.0,0.0,116.6,-62.7,1.02,0,100.0,0.0,1.0,0.0,0.0,1.0,0,100.0,188.2,90.0,1,1.0,0,1.0,0,1.0,0,1.0,0,1.0
119,'20',182.553,7.843,116.6,-62.7,1.02,0,100.0,0.0,1.0,0.0,0.0,1.0,1,100.0,188.2,90.0,1,1.0,0,1.0,0,1.0,0,1.0,0,1.0
120,'21',0.0,0.0,116.6,-62.7,1.02,0,100.0,0.0,1.0,0.0,0.0,1.0,0,100.0,188.2,90.0,1,1.0,0,1.0,0,1.0,0,1.0,0,1.0
121,'22',0.0,0.0,116.6,-62.7,1.02,0,100.0,0.0,1.0,0.0,0.0,1.0,0,100.0,188.2,90.0,1,1.0,0,1.0,0,1.0,0,1.0,0,1.0
122,'G1',120.511,3.703,96.8,-52.1,1.02,0,100.0,0.0,1.0,0.0,0.0,1.0,1,100.0,156.2,53.46,1,1.0,0,1.0,0,1.0,0,1.0,0,1.0
123,'G2',0.0,0.0,30.0,-20.7,1.02,0,100.0,0.0,1.0,0.0,0.0,1.0,0,100.0,62.0,5.0,1,1.0,0,1.0,0,1.0,0,1.0,0,1.0
124,'G3',0.0,0.0,30.0,-20.7,1.02,0,100.0,0.0,1.0,0.0,0.0,1.0,0,100.0,62.0,5.0,1,1.0,0,1.0,0,1.0,0,1.0,0,1.0
125,'G4',0.0,0.0,30.0,-20.7,1.02,0,100.0,0.0,1.0,0.0,0.0,1.0,0,100.0,62.0,5.0,1,1.0,0,1.0,0,1.0,0,1.0,0,1.0
126,'G5',0.0,0.0,30.0,-20.7,1.02,0,100.0,0.0,1.0,0.0,0.0,1.0,0,100.0,62.0,5.0,1,1.0,0,1.0,0,1.0,0,1.0,0,1.0
127,'G6',0.0,0.0,30.0,-20.7,1.02,0,100.0,0.0,1.0,0.0,0.0,1.0,0,100.0,62.0,5.0,1,1.0,0,1.0,0,1.0,0,1.0,0,1.0
128,'G7',0.0,0.0,30.0,-20.7,1.02,0,100.0,0.0,1.0,0.0,0.0,1.0,0,100.0,62.0,5.0,1,1.0,0,1.0,0,1.0,0,1.0,0,1.0
129,'G8',0.0,0.0,30.0,-20.7,1.02,0,100.0,0.0,1.0,0.0,0.0,1.0,0,100.0,62.0,5.0,1,1.0,0,1.0,0,1.0,0,1.0,0,1.0
130,'G9',0.0,0.0,30.0,-20.7,1.02,0,100.0,0.0,1.0,0.0,0.0,1.0,0,100.0,62.0,5.0,1,1.0,0,1.0,0,1.0,0,1.0,0,1.0
131,'10',171.814,27.717,116.6,-62.7,1.02,0,100.0,0.0,1.0,0.0,0.0,1.0,1,100.0,188.2,84.69,1,1.0,0,1.0,0,1.0,0,1.0,0,1.0
132,'11',0.0,0.0,96.8,-52.1,1.02,0,100.0,0.0,1.0,0.0,0.0,1.0,0,100.0,156.2,56.23,1,1.0,0,1.0,0,1.0,0,1.0,0,1.0
133,'G1',435.422,68.673,223.4,-145.4,1.02,0,100.0,0.0,1.0,0.0,0.0,1.0,1,100.0,436.1,295.0,1,1.0,0,1.0,0,1.0,0,1.0,0,1.0
134,'G2',435.422,68.673,223.4,-145.4,1.02,0,100.0,0.0,1.0,0.0,0.0,1.0,1,100.0,436.1,295.0,1,1.0,0,1.0,0,1.0,0,1.0,0,1.0
135,'G3',171.814,27.704,116.6,-62.7,1.02,0,100.0,0.0,1.0,0.0,0.0,1.0,1,100.0,188.2,84.69,1,1.0,0,1.0,0,1.0,0,1.0,0,1.0
136,'G4',171.814,27.717,116.6,-62.7,1.02,0,100.0,0.0,1.0,0.0,0.0,1.0,1,100.0,188.2,84.69,1,1.0,0,1.0,0,1.0,0,1.0,0,1.0
137,'G5',171.814,27.704,116.6,-62.7,1.02,0,100.0,0.0,1.0,0.0,0.0,1.0,1,100.0,188.2,84.69,1,1.0,0,1.0,0,1.0,0,1.0,0,1.0
138,'G6',171.814,27.717,116.6,-62.7,1.02,0,100.0,0.0,1.0,0.0,0.0,1.0,1,100.0,188.2,84.69,1,1.0,0,1.0,0,1.0,0,1.0,0,1.0
139,'G7',171.814,27.717,116.6,-62.7,1.02,0,100.0,0.0,1.0,0.0,0.0,1.0,1,100.0,188.2,84.69,1,1.0,0,1.0,0,1.0,0,1.0,0,1.0
140,'G8',171.814,27.704,116.6,-62.7,1.02,0,100.0,0.0,1.0,0.0,0.0,1.0,1,100.0,188.2,84.69,1,1.0,0,1.0,0,1.0,0,1.0,0,1.0
141,'G9',171.814,27.717,116.6,-62.7,1.02,0,100.0,0.0,1.0,0.0,0.0,1.0,1,100.0,188.2,84.69,1,1.0,0,1.0,0,1.0,0,1.0,0,1.0
142,'G1',0.0,0.0,442.3,-287.8,1.02,0,100.0,0.0,1.0,0.0,0.0,1.0,0,100.0,863.3,190.0,1,1.0,0,1.0,0,1.0,0,1.0,0,1.0
143,'G2',666.049,84.658,442.3,-287.8,1.02,0,100.0,0.0,1.0,0.0,0.0,1.0,1,100.0,863.3,190.0,1,1.0,0,1.0,0,1.0,0,1.0,0,1.0
144,'G3',471.066,57.937,292.4,-157.3,1.02,0,100.0,0.0,1.0,0.0,0.0,1.0,1,100.0,471.8,310.0,1,1.0,0,1.0,0,1.0,0,1.0,0,1.0
145,'G4',0.0,0.0,116.6,-62.7,1.02,0,100.0,0.0,1.0,0.0,0.0,1.0,0,100.0,188.2,84.69,1,1.0,0,1.0,0,1.0,0,1.0,0,1.0
146,'G5',171.814,20.297,116.6,-62.7,1.02,0,100.0,0.0,1.0,0.0,0.0,1.0,1,100.0,188.2,84.69,1,1.0,0,1.0,0,1.0,0,1.0,0,1.0
147,'G6',0.0,0.0,116.6,-62.7,1.02,0,100.0,0.0,1.0,0.0,0.0,1.0,0,100.0,188.2,84.69,1,1.0,0,1.0,0,1.0,0,1.0,0,1.0
148,'G7',171.814,20.322,116.6,-62.7,1.02,0,100.0,0.0,1.0,0.0,0.0,1.0,1,100.0,188.2,84.69,1,1.0,0,1.0,0,1.0,0,1.0,0,1.0
149,'10',0.0,0.0,153.0,-68.0,1.02,0,100.0,0.0,1.0,0.0,0.0,1.0,0,100.0,204.0,143.0,1,1.0,0,1.0,0,1.0,0,1.0,0,1.0
150,'11',0.0,0.0,153.0,-68.0,1.02,0,100.0,0.0,1.0,0.0,0.0,1.0,0,100.0,204.0,143.0,1,1.0,0,1.0,0,1.0,0,1.0,0,1.0
151,'12',203.683,26.031,153.0,-68.0,1.02,0,100.0,0.0,1.0,0.0,0.0,1.0,1,100.0,204.0,143.0,1,1.0,0,1.0,0,1.0,0,1.0,0,1.0
152,'13',0.0,0.0,153.0,-68.0,1.02,0,100.0,0.0,1.0,0.0,0.0,1.0,0,100.0,204.0,143.0,1,1.0,0,1.0,0,1.0,0,1.0,0,1.0
153,'G1',481.132,82.701,478.8,-311.5,1.02,0,100.0,0.0,1.0,0.0,0.0,1.0,1,100.0,934.5,190.0,1,1.0,0,1.0,0,1.0,0,1.0,0,1.0
154,'G2',0.0,0.0,478.8,-311.5,1.02,0,100.0,0.0,1.0,0.0,0.0,1.0,0,100.0,934.5,190.0,1,1.0,0,1.0,0,1.0,0,1.0,0,1.0
155,'G3',470.966,62.772,292.3,-157.2,1.02,0,100.0,0.0,1.0,0.0,0.0,1.0,1,100.0,471.7,320.0,1,1.0,0,1.0,0,1.0,0,1.0,0,1.0
156,'G4',0.0,0.0,116.6,-62.7,1.02,0,100.0,0.0,1.0,0.0,0.0,1.0,0,100.0,188.2,84.69,1,1.0,0,1.0,0,1.0,0,1.0,0,1.0
157,'G5',171.814,22.353,116.6,-62.7,1.02,0,100.0,0.0,1.0,0.0,0.0,1.0,1,100.0,188.2,84.69,1,1.0,0,1.0,0,1.0,0,1.0,0,1.0
158,'G6',171.814,22.342,116.6,-62.7,1.02,0,100.0,0.0,1.0,0.0,0.0,1.0,1,100.0,188.2,84.69,1,1.0,0,1.0,0,1.0,0,1.0,0,1.0
159,'G7',0.0,0.0,116.6,-62.7,1.02,0,100.0,0.0,1.0,0.0,0.0,1.0,0,100.0,188.2,84.69,1,1.0,0,1.0,0,1.0,0,1.0,0,1.0
160,'G8',203.683,26.044,153.0,-68.0,1.02,0,100.0,0.0,1.0,0.0,0.0,1.0,1,100.0,204.0,143.0,1,1.0,0,1.0,0,1.0,0,1.0,0,1.0
161,'G9',0.0,0.0,153.0,-68.0,1.02,0,100.0,0.0,1.0,0.0,0.0,1.0,0,100.0,204.0,143.0,1,1.0,0,1.0,0,1.0,0,1.0,0,1.0
162,'G1',758.818,91.908,368.1,-253.3,1.02,0,100.0,0.0,1.0,0.0,0.0,1.0,1,100.0,760.0,424.0,1,1.0,0,1.0,0,1.0,0,1.0,0,1.0
163,'G3',471.266,57.281,292.5,-157.3,1.02,0,100.0,0.0,1.0,0.0,0.0,1.0,1,100.0,472.0,310.0,1,1.0,0,1.0,0,1.0,0,1.0,0,1.0
164,'G4',0.0,0.0,249.1,-134.0,1.02,0,100.0,0.0,1.0,0.0,0.0,1.0,0,100.0,402.0,90.0,1,1.0,0,1.0,0,1.0,0,1.0,0,1.0
165,'G5',0.0,0.0,249.1,-134.0,1.02,0,100.0,0.0,1.0,0.0,0.0,1.0,0,100.0,402.0,90.0,1,1.0,0,1.0,0,1.0,0,1.0,0,1.0
166,'G6',171.632,19.993,116.5,-62.7,1.02,0,100.0,0.0,1.0,0.0,0.0,1.0,1,100.0,188.0,84.6,1,1.0,0,1.0,0,1.0,0,1.0,0,1.0
167,'G7',171.632,19.993,116.5,-62.7,1.02,0,100.0,0.0,1.0,0.0,0.0,1.0,1,100.0,188.0,84.6,1,1.0,0,1.0,0,1.0,0,1.0,0,1.0
168,'G8',171.632,19.993,116.5,-62.7,1.02,0,100.0,0.0,1.0,0.0,0.0,1.0,1,100.0,188.0,84.6,1,1.0,0,1.0,0,1.0,0,1.0,0,1.0
169,'G9',171.632,19.993,116.5,-62.7,1.02,0,100.0,0.0,1.0,0.0,0.0,1.0,1,100.0,188.0,84.6,1,1.0,0,1.0,0,1.0,0,1.0,0,1.0
170,'10',26.386,3.904,21.2,-11.4,1.02,0,100.0,0.0,1.0,0.0,0.0,1.0,1,100.0,34.2,5.0,1,1.0,0,1.0,0,1.0,0,1.0,0,1.0
171,'11',26.386,3.901,21.2,-11.4,1.02,0,100.0,0.0,1.0,0.0,0.0,1.0,1,100.0,34.2,5.0,1,1.0,0,1.0,0,1.0,0,1.0,0,1.0
172,'12',26.386,3.901,21.2,-11.4,1.02,0,100.0,0.0,1.0,0.0,0.0,1.0,1,100.0,34.2,5.0,1,1.0,0,1.0,0,1.0,0,1.0,0,1.0
173,'13',26.386,3.901,21.2,-11.4,1.02,0,100.0,0.0,1.0,0.0,0.0,1.0,1,100.0,34.2,5.0,1,1.0,0,1.0,0,1.0,0,1.0,0,1.0
174,'14',26.386,3.904,21.2,-11.4,1.02,0,100.0,0.0,1.0,0.0,0.0,1.0,1,100.0,34.2,5.0,1,1.0,0,1.0,0,1.0,0,1.0,0,1.0
175,'15',26.386,3.904,21.2,-11.4,1.02,0,100.0,0.0,1.0,0.0,0.0,1.0,1,100.0,34.2,5.0,1,1.0,0,1.0,0,1.0,0,1.0,0,1.0
176,'16',26.386,3.904,21.2,-11.4,1.02,0,100.0,0.0,1.0,0.0,0.0,1.0,1,100.0,34.2,5.0,1,1.0,0,1.0,0,1.0,0,1.0,0,1.0
177,'17',26.386,3.904,21.2,-11.4,1.02,0,100.0,0.0,1.0,0.0,0.0,1.0,1,100.0,34.2,5.0,1,1.0,0,1.0,0,1.0,0,1.0,0,1.0
178,'18',26.386,3.901,21.2,-11.4,1.02,0,100.0,0.0,1.0,0.0,0.0,1.0,1,100.0,34.2,5.0,1,1.0,0,1.0,0,1.0,0,1.0,0,1.0
179,'19',26.386,3.901,21.2,-11.4,1.02,0,100.0,0.0,1.0,0.0,0.0,1.0,1,100.0,34.2,5.0,1,1.0,0,1.0,0,1.0,0,1.0,0,1.0
180,'20',26.386,3.901,21.2,-11.4,1.02,0,100.0,0.0,1.0,0.0,0.0,1.0,1,100.0,34.2,5.0,1,1.0,0,1.0,0,1.0,0,1.0,0,1.0
181,'21',26.386,3.904,21.2,-11.4,1.02,0,100.0,0.0,1.0,0.0,0.0,1.0,1,100.0,34.2,5.0,1,1.0,0,1.0,0,1.0,0,1.0,0,1.0
182,'22',26.386,3.901,21.2,-11.4,1.02,0,100.0,0.0,1.0,0.0,0.0,1.0,1,100.0,34.2,5.0,1,1.0,0,1.0,0,1.0,0,1.0,0,1.0
183,'23',26.386,3.901,21.2,-11.4,1.02,0,100.0,0.0,1.0,0.0,0.0,1.0,1,100.0,34.2,5.0,1,1.0,0,1.0,0,1.0,0,1.0,0,1.0
184,'24',26.386,3.901,25.7,-11.4,1.02,0,100.0,0.0,1.0,0.0,0.0,1.0,1,100.0,34.2,5.0,1,1.0,0,1.0,0,1.0,0,1.0,0,1.0
185,'25',116.653,18.732,93.7,-50.4,1.02,0,100.0,0.0,1.0,0.0,0.0,1.0,1,100.0,151.2,48.32,1,1.0,0,1.0,0,1.0,0,1.0,0,1.0
186,'26',116.653,18.732,93.7,-50.4,1.02,0,100.0,0.0,1.0,0.0,0.0,1.0,1,100.0,151.2,48.32,1,1.0,0,1.0,0,1.0,0,1.0,0,1.0
187,'27',184.712,26.803,138.8,-61.7,1.02,0,100.0,0.0,1.0,0.0,0.0,1.0,1,100.0,185.0,155.0,1,1.0,0,1.0,0,1.0,0,1.0,0,1.0
188,'28',184.712,26.789,138.8,-61.7,1.02,0,100.0,0.0,1.0,0.0,0.0,1.0,1,100.0,185.0,155.0,1,1.0,0,1.0,0,1.0,0,1.0,0,1.0
189,'29',184.712,26.789,138.8,-61.7,1.02,0,100.0,0.0,1.0,0.0,0.0,1.0,1,100.0,185.0,155.0,1,1.0,0,1.0,0,1.0,0,1.0,0,1.0
190,'30',184.712,26.789,138.8,-61.7,1.02,0,100.0,0.0,1.0,0.0,0.0,1.0,1,100.0,185.0,155.0,1,1.0,0,1.0,0,1.0,0,1.0,0,1.0
191,'G1',26.386,3.901,21.2,-11.4,1.02,0,100.0,0.0,1.0,0.0,0.0,1.0,1,100.0,34.2,5.0,1,1.0,0,1.0,0,1.0,0,1.0,0,1.0
192,'G2',26.386,3.901,21.2,-11.4,1.02,0,100.0,0.0,1.0,0.0,0.0,1.0,1,100.0,34.2,5.0,1,1.0,0,1.0,0,1.0,0,1.0,0,1.0
193,'G3',26.386,3.904,21.2,-11.4,1.02,0,100.0,0.0,1.0,0.0,0.0,1.0,1,100.0,34.2,5.0,1,1.0,0,1.0,0,1.0,0,1.0,0,1.0
194,'G4',26.386,3.901,21.2,-11.4,1.02,0,100.0,0.0,1.0,0.0,0.0,1.0,1,100.0,34.2,5.0,1,1.0,0,1.0,0,1.0,0,1.0,0,1.0
195,'G5',26.386,3.904,21.2,-11.4,1.02,0,100.0,0.0,1.0,0.0,0.0,1.0,1,100.0,34.2,5.0,1,1.0,0,1.0,0,1.0,0,1.0,0,1.0
196,'G6',26.386,3.904,21.2,-11.4,1.02,0,100.0,0.0,1.0,0.0,0.0,1.0,1,100.0,34.2,5.0,1,1.0,0,1.0,0,1.0,0,1.0,0,1.0
197,'G7',26.386,3.904,21.2,-11.4,1.02,0,100.0,0.0,1.0,0.0,0.0,1.0,1,100.0,34.2,5.0,1,1.0,0,1.0,0,1.0,0,1.0,0,1.0
198,'G8',26.386,3.901,21.2,-11.4,1.02,0,100.0,0.0,1.0,0.0,0.0,1.0,1,100.0,34.2,5.0,1,1.0,0,1.0,0,1.0,0,1.0,0,1.0
199,'G9',26.386,3.904,21.2,-11.4,1.02,0,100.0,0.0,1.0,0.0,0.0,1.0,1,100.0,34.2,5.0,1,1.0,0,1.0,0,1.0,0,1.0,0,1.0
200,'G1',0.0,0.0,89.6,-61.7,1.02,0,100.0,0.0,1.0,0.0,0.0,1.0,0,100.0,185.0,65.0,1,1.0,0,1.0,0,1.0,0,1.0,0,1.0
...
0 / END OF GENERATOR DATA BEGIN BRANCH DATA
27810,29514,'L1',0.00047,0.00585,0.40091,1725.0,1811.2,1897.5,0.0,0.0,0.0,0.0,1,1,0.0,1,1.0,0,1.0,0,1.0,0,1.0
27810,30911,'L1',0.0007,0.01005,0.69505,1893.0,1987.6,2082.3,0.0,0.0,0.0,0.0,1,1,0.0,1,1.0,0,1.0,0,1.0,0,1.0
27811,28131,'L1',0.00035,0.00857,0.63202,2783.0,2922.2,3061.3,0.0,0.0,0.0,0.0,1,1,0.0,1,1.0,0,1.0,0,1.0,0,1.0
27811,28681,'L1',0.00024,0.00586,0.69888,4112.0,4317.6,4523.2,0.0,0.0,0.0,0.0,1,1,0.0,1,1.0,0,1.0,0,1.0,0,1.0
27811,857775,'BT',1e-06,1e-05,0.0,4000.0,4000.0,4000.0,0.0,0.0,0.0,0.0,1,1,0.0,1,1.0,0,1.0,0,1.0,0,1.0
27812,28820,'L1',1e-05,0.00011,0.0086,1725.0,1811.2,1897.5,0.0,0.0,0.0,0.0,1,1,0.0,1,1.0,0,1.0,0,1.0,0,1.0
27813,31215,'L2',0.00057,0.00574,0.01302,668.0,668.0,668.0,0.0,0.0,0.0,0.0,1,1,0.0,1,1.0,0,1.0,0,1.0,0,1.0
27813,31522,'L1',0.00024,0.00284,0.01009,794.0,833.7,873.4,0.0,0.0,0.0,0.0,1,1,0.0,1,1.0,0,1.0,0,1.0,0,1.0
27813,857776,'BT',1e-06,1e-05,0.0,4000.0,4000.0,4000.0,0.0,0.0,0.0,0.0,1,1,0.0,1,1.0,0,1.0,0,1.0,0,1.0
27814,30713,'L1',0.00041,0.00516,0.35337,1725.0,1811.2,1897.5,0.0,0.0,0.0,0.0,1,1,0.0,1,1.0,0,1.0,0,1.0,0,1.0
27814,857777,'BT',1e-06,1e-05,0.0,4000.0,4000.0,4000.0,0.0,0.0,0.0,0.0,1,1,0.0,1,1.0,0,1.0,0,1.0,0,1.0
27815,29434,'L1',4e-05,0.0005,0.03289,1725.0,1811.2,1897.5,0.0,0.0,0.0,0.0,1,1,0.0,1,1.0,0,1.0,0,1.0,0,1.0
27815,857778,'BT',1e-06,1e-05,0.0,4000.0,4000.0,4000.0,0.0,0.0,0.0,0.0,1,1,0.0,1,1.0,0,1.0,0,1.0,0,1.0
27816,29338,'L1',0.00057,0.01577,1.1868,3031.0,3182.6,3334.1,0.0,0.0,0.0,0.0,1,1,0.0,1,1.0,0,1.0,0,1.0,0,1.0
27816,857779,'BT',1e-06,1e-05,0.0,4000.0,4000.0,4000.0,0.0,0.0,0.0,0.0,1,1,0.0,1,1.0,0,1.0,0,1.0,0,1.0
27817,28145,'L1',0.00029,0.00493,0.01743,1023.0,1074.1,1125.3,0.0,0.0,0.0,0.0,1,1,0.0,1,1.0,0,1.0,0,1.0,0,1.0
27817,28148,'L1',8e-05,0.00085,0.00174,491.0,515.5,540.1,0.0,0.0,0.0,0.0,1,1,0.0,1,1.0,0,1.0,0,1.0,0,1.0
27817,857780,'BT',1e-06,1e-05,0.0,4000.0,4000.0,4000.0,0.0,0.0,0.0,0.0,1,1,0.0,1,1.0,0,1.0,0,1.0,0,1.0
27818,31179,'L1',0.00027,0.00353,0.22554,1725.0,1811.2,1897.5,0.0,0.0,0.0,0.0,1,1,0.0,1,1.0,0,1.0,0,1.0,0,1.0
27818,857799,'L1',6e-05,0.00083,0.05317,1725.0,1811.2,1897.5,0.0,0.0,0.0,0.0,1,1,0.0,1,1.0,0,1.0,0,1.0,0,1.0
27819,31589,'L1',0.00016,0.00196,0.00403,541.0,568.1,595.1,0.0,0.0,0.0,0.0,1,1,0.0,1,1.0,0,1.0,0,1.0,0,1.0
27819,857781,'BT',1e-06,1e-05,0.0,4000.0,4000.0,4000.0,0.0,0.0,0.0,0.0,1,1,0.0,1,1.0,0,1.0,0,1.0,0,1.0
27820,30914,'L1',0.0002,0.00155,0.00555,635.0,666.8,698.5,0.0,0.0,0.0,0.0,1,1,0.0,1,1.0,0,1.0,0,1.0,0,1.0
27821,28329,'L1',0.00032,0.00766,0.62372,2811.0,2951.5,3092.1,0.0,0.0,0.0,0.0,1,1,0.0,1,1.0,0,1.0,0,1.0,0,1.0
27821,31179,'L1',0.00036,0.00451,0.30894,1725.0,1811.2,1897.5,0.0,0.0,0.0,0.0,1,1,0.0,1,1.0,0,1.0,0,1.0,0,1.0
27821,857782,'BT',1e-06,1e-05,0.0,4000.0,4000.0,4000.0,0.0,0.0,0.0,0.0,1,1,0.0,1,1.0,0,1.0,0,1.0,0,1.0
27822,28820,'L1',1e-05,0.00026,0.02251,2720.0,2856.0,2992.0,0.0,0.0,0.0,0.0,1,1,0.0,1,1.0,0,1.0,0,1.0,0,1.0
27822,857783,'BT',1e-06,1e-05,0.0,4000.0,4000.0,4000.0,0.0,0.0,0.0,0.0,1,1,0.0,1,1.0,0,1.0,0,1.0,0,1.0
27823,28822,'L1',0.00086,0.00552,0.00145,219.0,229.9,240.9,0.0,0.0,0.0,0.0,1,1,0.0,1,1.0,0,1.0,0,1.0,0,1.0
27823,85084,'L1',0.00153,0.01494,0.00419,284.0,298.2,312.4,0.0,0.0,0.0,0.0,1,1,0.0,1,1.0,0,1.0,0,1.0,0,1.0
27823,857784,'BT',1e-06,1e-05,0.0,4000.0,4000.0,4000.0,0.0,0.0,0.0,0.0,1,1,0.0,1,1.0,0,1.0,0,1.0,0,1.0
27824,28058,'L1',0.0041,0.0206,0.00536,185.0,194.2,203.5,0.0,0.0,0.0,0.0,1,1,0.0,1,1.0,0,1.0,0,1.0,0,1.0
27824,28059,'L1',0.00941,0.04123,0.01419,185.0,194.2,203.5,0.0,0.0,0.0,0.0,1,1,0.0,1,1.0,0,1.0,0,1.0,0,1.0
27824,28071,'L1',0.00448,0.02883,0.00756,219.0,229.9,240.9,0.0,0.0,0.0,0.0,1,1,0.0,1,1.0,0,1.0,0,1.0,0,1.0
27824,857785,'BT',1e-06,1e-05,0.0,4000.0,4000.0,4000.0,0.0,0.0,0.0,0.0,1,1,0.0,1,1.0,0,1.0,0,1.0,0,1.0
27825,29511,'L1',0.00362,0.02352,0.04686,366.0,384.3,402.6,0.0,0.0,0.0,0.0,1,1,0.0,1,1.0,0,1.0,0,1.0,0,1.0
27825,31814,'L1',0.00087,0.00578,0.01089,366.0,384.3,402.6,0.0,0.0,0.0,0.0,1,1,0.0,1,1.0,0,1.0,0,1.0,0,1.0
27826,29246,'L1',0.00096,0.00638,0.01202,366.0,384.3,402.6,0.0,0.0,0.0,0.0,1,1,0.0,1,1.0,0,1.0,0,1.0,0,1.0
27826,29479,'L1',0.00132,0.01296,0.02761,473.0,496.6,520.3,0.0,0.0,0.0,0.0,1,1,0.0,1,1.0,0,1.0,0,1.0,0,1.0
27826,31397,'L2',0.00078,0.0083,0.01688,491.0,515.5,540.1,0.0,0.0,0.0,0.0,1,1,0.0,1,1.0,0,1.0,0,1.0,0,1.0
27826,857786,'BT',1e-06,1e-05,0.0,4000.0,4000.0,4000.0,0.0,0.0,0.0,0.0,1,1,0.0,1,1.0,0,1.0,0,1.0,0,1.0
27827,30856,'L1',0.00158,0.01446,0.05707,731.0,767.5,804.1,0.0,0.0,0.0,0.0,1,1,0.0,1,1.0,0,1.0,0,1.0,0,1.0
27828,29017,'L1',0.00537,0.02219,0.00525,241.0,241.0,313.0,0.0,0.0,0.0,0.0,1,1,0.0,1,1.0,0,1.0,0,1.0,0,1.0
27828,31832,'L1',0.00277,0.0109,0.00285,241.0,241.0,313.0,0.0,0.0,0.0,0.0,1,1,0.0,1,1.0,0,1.0,0,1.0,0,1.0
27828,857787,'BT',1e-06,1e-05,0.0,4000.0,4000.0,4000.0,0.0,0.0,0.0,0.0,1,1,0.0,1,1.0,0,1.0,0,1.0,0,1.0
27829,28781,'L1',0.00129,0.01198,0.00371,284.0,298.2,312.4,0.0,0.0,0.0,0.0,1,1,0.0,1,1.0,0,1.0,0,1.0,0,1.0
27829,28787,'L1',0.0025,0.03529,0.01207,388.0,407.4,426.8,0.0,0.0,0.0,0.0,1,1,0.0,1,1.0,0,1.0,0,1.0,0,1.0
27829,857788,'BT',1e-06,1e-05,0.0,4000.0,4000.0,4000.0,0.0,0.0,0.0,0.0,1,1,0.0,1,1.0,0,1.0,0,1.0,0,1.0
27830,27859,'L1',1e-05,9e-05,0.00655,1725.0,1811.2,1897.5,0.0,0.0,0.0,0.0,1,1,0.0,1,1.0,0,1.0,0,1.0,0,1.0
27830,857789,'BT',1e-06,1e-05,0.0,4000.0,4000.0,4000.0,0.0,0.0,0.0,0.0,1,1,0.0,1,1.0,0,1.0,0,1.0,0,1.0
27831,28788,'L1',0.00129,0.02325,1.6663,2226.0,2337.3,2448.6,0.0,0.0,0.0,0.0,1,1,0.0,1,1.0,0,1.0,0,1.0,0,1.0
27831,30570,'L1',0.00167,0.02878,2.2775,2226.0,2337.3,2448.6,0.0,0.0,0.0,0.0,1,1,0.0,1,1.0,0,1.0,0,1.0,0,1.0
27831,857790,'BT',1e-06,1e-05,0.0,4000.0,4000.0,4000.0,0.0,0.0,0.0,0.0,1,1,0.0,1,1.0,0,1.0,0,1.0,0,1.0
27832,28146,'L1',0.00027,0.00421,0.00893,647.0,679.3,711.7,0.0,0.0,0.0,0.0,1,1,0.0,1,1.0,0,1.0,0,1.0,0,1.0
27832,28154,'L1',0.00038,0.00255,0.0047,366.0,384.3,402.6,0.0,0.0,0.0,0.0,1,1,0.0,1,1.0,0,1.0,0,1.0,0,1.0
27832,857791,'BT',1e-06,1e-05,0.0,4000.0,4000.0,4000.0,0.0,0.0,0.0,0.0,1,1,0.0,1,1.0,0,1.0,0,1.0,0,1.0
27833,29084,'L1',0.00634,0.03779,0.00994,205.0,215.2,225.5,0.0,0.0,0.0,0.0,1,1,0.0,1,1.0,0,1.0,0,1.0,0,1.0
27833,84705,'L1',0.00278,0.01296,0.00321,175.0,183.7,192.5,0.0,0.0,0.0,0.0,1,1,0.0,1,1.0,0,1.0,0,1.0,0,1.0
27833,857792,'BT',1e-06,1e-05,0.0,4000.0,4000.0,4000.0,0.0,0.0,0.0,0.0,1,1,0.0,1,1.0,0,1.0,0,1.0,0,1.0
27834,31720,'L1',3e-05,0.00039,0.02651,1997.0,1997.0,1997.0,0.0,0.0,0.0,0.0,1,1,0.0,1,1.0,0,1.0,0,1.0,0,1.0
27834,857793,'BT',1e-06,1e-05,0.0,4000.0,4000.0,4000.0,0.0,0.0,0.0,0.0,1,1,0.0,1,1.0,0,1.0,0,1.0,0,1.0
27835,27850,'L1',2e-05,0.00018,0.0006,794.0,833.7,873.4,0.0,0.0,0.0,0.0,1,1,0.0,1,1.0,0,1.0,0,1.0,0,1.0
27835,857794,'BT',1e-06,1e-05,0.0,4000.0,4000.0,4000.0,0.0,0.0,0.0,0.0,1,1,0.0,1,1.0,0,1.0,0,1.0,0,1.0
27836,29430,'L1',3e-05,0.00059,0.04213,2226.0,2337.3,2448.6,0.0,0.0,0.0,0.0,1,1,0.0,1,1.0,0,1.0,0,1.0,0,1.0
27836,857795,'BT',1e-06,1e-05,0.0,4000.0,4000.0,4000.0,0.0,0.0,0.0,0.0,1,1,0.0,1,1.0,0,1.0,0,1.0,0,1.0
27837,28730,'L1',0.00056,0.00929,0.60748,2056.0,2158.8,2261.6,0.0,0.0,0.0,0.0,1,1,0.0,1,1.0,0,1.0,0,1.0,0,1.0
27837,29601,'L1',0.00012,0.00146,0.10951,1725.0,1811.2,1897.5,0.0,0.0,0.0,0.0,1,1,0.0,1,1.0,0,1.0,0,1.0,0,1.0
27837,857796,'BT',1e-06,1e-05,0.0,4000.0,4000.0,4000.0,0.0,0.0,0.0,0.0,1,1,0.0,1,1.0,0,1.0,0,1.0,0,1.0
27838,27855,'L1',5e-05,0.00089,0.08653,2720.0,2856.0,2992.0,0.0,0.0,0.0,0.0,1,1,0.0,1,1.0,0,1.0,0,1.0,0,1.0
27838,857797,'BT',1e-06,1e-05,0.0,4000.0,4000.0,4000.0,0.0,0.0,0.0,0.0,1,1,0.0,1,1.0,0,1.0,0,1.0,0,1.0
27839,29434,'L1',0.00029,0.00381,0.24301,1725.0,1811.2,1897.5,0.0,0.0,0.0,0.0,1,1,0.0,1,1.0,0,1.0,0,1.0,0,1.0
27839,29911,'L1',0.00016,0.0023,0.15895,1893.0,1987.6,2082.3,0.0,0.0,0.0,0.0,1,1,0.0,1,1.0,0,1.0,0,1.0,0,1.0
27839,857798,'BT',1e-06,1e-05,0.0,4000.0,4000.0,4000.0,0.0,0.0,0.0,0.0,1,1,0.0,1,1.0,0,1.0,0,1.0,0,1.0
27840,31178,'L1',0.00036,0.00714,0.58134,2840.0,2982.0,3124.0,0.0,0.0,0.0,0.0,1,1,0.0,1,1.0,0,1.0,0,1.0,0,1.0
27840,31179,'L1',0.00027,0.00352,0.22475,1725.0,1811.2,1897.5,0.0,0.0,0.0,0.0,1,1,0.0,1,1.0,0,1.0,0,1.0,0,1.0
27840,857799,'BT',1e-06,1e-05,0.0,4000.0,4000.0,4000.0,0.0,0.0,0.0,0.0,1,1,0.0,1,1.0,0,1.0,0,1.0,0,1.0
27841,30522,'L1',5e-05,0.00124,0.10212,3031.0,3182.6,3334.1,0.0,0.0,0.0,0.0,1,1,0.0,1,1.0,0,1.0,0,1.0,0,1.0
27841,857800,'BT',1e-06,1e-05,0.0,4000.0,4000.0,4000.0,0.0,0.0,0.0,0.0,1,1,0.0,1,1.0,0,1.0,0,1.0,0,1.0
27842,28520,'L1',0.0001,0.00115,0.08645,1725.0,1811.2,1897.5,0.0,0.0,0.0,0.0,1,1,0.0,1,1.0,0,1.0,0,1.0,0,1.0
27842,857801,'BT',1e-06,1e-05,0.0,4000.0,4000.0,4000.0,0.0,0.0,0.0,0.0,1,1,0.0,1,1.0,0,1.0,0,1.0,0,1.0
27843,28791,'L1',0.00022,0.00216,0.0046,473.0,496.6,520.3,0.0,0.0,0.0,0.0,1,1,0.0,1,1.0,0,1.0,0,1.0,0,1.0
27844,28842,'L1',0.00102,0.01233,0.02386,528.0,554.4,580.8,0.0,0.0,0.0,0.0,1,1,0.0,1,1.0,0,1.0,0,1.0,0,1.0
27844,28962,'L1',0.00059,0.00623,0.01172,473.0,496.6,520.3,0.0,0.0,0.0,0.0,1,1,0.0,1,1.0,0,1.0,0,1.0,0,1.0
27844,857802,'BT',1e-06,1e-05,0.0,4000.0,4000.0,4000.0,0.0,0.0,0.0,0.0,1,1,0.0,1,1.0,0,1.0,0,1.0,0,1.0
27845,29594,'L1',0.00121,0.0152,1.0455,1725.0,1811.2,1897.5,0.0,0.0,0.0,0.0,1,1,0.0,1,1.0,0,1.0,0,1.0,0,1.0
27845,857803,'BT',1e-06,1e-05,0.0,4000.0,4000.0,4000.0,0.0,0.0,0.0,0.0,1,1,0.0,1,1.0,0,1.0,0,1.0,0,1.0
27846,32151,'L1',0.00092,0.00659,0.00175,230.0,241.5,253.0,0.0,0.0,0.0,0.0,1,1,0.0,1,1.0,0,1.0,0,1.0,0,1.0
27846,32160,'L1',0.00063,0.00443,0.00122,230.0,241.5,253.0,0.0,0.0,0.0,0.0,1,1,0.0,1,1.0,0,1.0,0,1.0,0,1.0
27846,857804,'BT',1e-06,1e-05,0.0,4000.0,4000.0,4000.0,0.0,0.0,0.0,0.0,1,1,0.0,1,1.0,0,1.0,0,1.0,0,1.0
27847,31271,'L1',9e-05,0.00109,0.00218,541.0,568.1,595.1,0.0,0.0,0.0,0.0,1,1,0.0,1,1.0,0,1.0,0,1.0,0,1.0
27848,29440,'L1',0.00028,0.00333,0.25308,1725.0,1811.2,1897.5,0.0,0.0,0.0,0.0,1,1,0.0,1,1.0,0,1.0,0,1.0,0,1.0
27848,30520,'L1',0.00199,0.03602,3.2555,2720.0,2856.0,2992.0,0.0,0.0,0.0,0.0,1,1,0.0,1,1.0,0,1.0,0,1.0,0,1.0
27848,857805,'BT',1e-06,1e-05,0.0,4000.0,4000.0,4000.0,0.0,0.0,0.0,0.0,1,1,0.0,1,1.0,0,1.0,0,1.0,0,1.0
27849,28088,'L1',0.00201,0.0256,0.0484,541.0,568.1,595.1,0.0,0.0,0.0,0.0,1,1,0.0,1,1.0,0,1.0,0,1.0,0,1.0
27849,28112,'L1',0.00065,0.00685,0.02968,794.0,833.7,873.4,0.0,0.0,0.0,0.0,1,1,0.0,1,1.0,0,1.0,0,1.0,0,1.0
27849,857806,'BT',1e-06,1e-05,0.0,4000.0,4000.0,4000.0,0.0,0.0,0.0,0.0,1,1,0.0,1,1.0,0,1.0,0,1.0,0,1.0
27850,27854,'L1',1e-05,7e-05,0.00015,417.0,437.8,458.7,0.0,0.0,0.0,0.0,1,1,0.0,1,1.0,0,1.0,0,1.0,0,1.0
27850,857807,'BT',1e-06,1e-05,0.0,4000.0,4000.0,4000.0,0.0,0.0,0.0,0.0,1,1,0.0,1,1.0,0,1.0,0,1.0,0,1.0
27851,29103,'L1',0.00251,0.00909,0.00195,241.0,241.0,313.0,0.0,0.0,0.0,0.0,1,1,0.0,1,1.0,0,1.0,0,1.0,0,1.0
27851,85187,'L1',0.00187,0.00748,0.00188,241.0,241.0,313.0,0.0,0.0,0.0,0.0,1,1,0.0,1,1.0,0,1.0,0,1.0,0,1.0
27852,30544,'L1',0.00012,0.00095,0.00043,381.0,400.1,419.1,0.0,0.0,0.0,0.0,1,1,0.0,1,1.0,0,1.0,0,1.0,0,1.0
27853,30676,'L1',0.00186,0.00732,0.00191,241.0,241.0,313.0,0.0,0.0,0.0,0.0,1,1,0.0,1,1.0,0,1.0,0,1.0,0,1.0
27853,30776,'L1',0.00116,0.00471,0.00115,241.0,241.0,313.0,0.0,0.0,0.0,0.0,1,1,0.0,1,1.0,0,1.0,0,1.0,0,1.0
27853,30784,'L1',0.00159,0.00842,0.00213,191.0,200.6,210.1,0.0,0.0,0.0,0.0,1,1,0.0,1,1.0,0,1.0,0,1.0,0,1.0
27854,31591,'L1',0.00051,0.00529,0.01015,473.0,496.6,520.3,0.0,0.0,0.0,0.0,1,1,0.0,1,1.0,0,1.0,0,1.0,0,1.0
27855,857808,'BT',1e-06,1e-05,0.0,4000.0,4000.0,4000.0,0.0,0.0,0.0,0.0,1,1,0.0,1,1.0,0,1.0,0,1.0,0,1.0
27856,31720,'L1',0.00067,0.01077,0.75762,2056.0,2158.8,2261.6,0.0,0.0,0.0,0.0,1,1,0.0,1,1.0,0,1.0,0,1.0,0,1.0
27856,857809,'BT',1e-06,1e-05,0.0,4000.0,4000.0,4000.0,0.0,0.0,0.0,0.0,1,1,0.0,1,1.0,0,1.0,0,1.0,0,1.0
27857,28979,'L1',0.0005,0.00755,0.02713,946.0,993.3,1040.6,0.0,0.0,0.0,0.0,1,1,0.0,1,1.0,0,1.0,0,1.0,0,1.0
27857,857810,'BT',1e-06,1e-05,0.0,4000.0,4000.0,4000.0,0.0,0.0,0.0,0.0,1,1,0.0,1,1.0,0,1.0,0,1.0,0,1.0
27858,29030,'L1',0.00315,0.01404,0.00381,175.0,183.7,192.5,0.0,0.0,0.0,0.0,1,1,0.0,1,1.0,0,1.0,0,1.0,0,1.0
27859,29440,'L1',0.00024,0.00285,0.21388,1725.0,1811.2,1897.5,0.0,0.0,0.0,0.0,1,1,0.0,1,1.0,0,1.0,0,1.0,0,1.0
27860,31732,'L1',0.00037,0.00523,0.01002,579.0,608.0,636.9,0.0,0.0,0.0,0.0,1,1,0.0,1,1.0,0,1.0,0,1.0,0,1.0
27860,857811,'BT',1e-06,1e-05,0.0,4000.0,4000.0,4000.0,0.0,0.0,0.0,0.0,1,1,0.0,1,1.0,0,1.0,0,1.0,0,1.0
27861,31702,'L1',0.00313,0.01273,0.0031,289.0,289.0,373.0,0.0,0.0,0.0,0.0,1,1,0.0,1,1.0,0,1.0,0,1.0,0,1.0
27861,857812,'BT',1e-06,1e-05,0.0,4000.0,4000.0,4000.0,0.0,0.0,0.0,0.0,1,1,0.0,1,1.0,0,1.0,0,1.0,0,1.0
27862,30713,'L1',0.00037,0.00598,0.42022,2056.0,2158.8,2261.6,0.0,0.0,0.0,0.0,1,1,0.0,1,1.0,0,1.0,0,1.0,0,1.0
27863,28178,'L1',0.00043,0.00668,0.51419,2056.0,2158.8,2261.6,0.0,0.0,0.0,0.0,1,1,0.0,1,1.0,0,1.0,0,1.0,0,1.0
27863,857813,'BT',1e-06,1e-05,0.0,4000.0,4000.0,4000.0,0.0,0.0,0.0,0.0,1,1,0.0,1,1.0,0,1.0,0,1.0,0,1.0
27864,30280,'L1',0.00301,0.01379,0.00353,325.0,341.2,357.5,0.0,0.0,0.0,0.0,1,1,0.0,1,1.0,0,1.0,0,1.0,0,1.0
27864,30284,'L2',0.00047,0.0018,0.0005,325.0,341.2,357.5,0.0,0.0,0.0,0.0,1,1,0.0,1,1.0,0,1.0,0,1.0,0,1.0
27864,857814,'BT',1e-06,1e-05,0.0,4000.0,4000.0,4000.0,0.0,0.0,0.0,0.0,1,1,0.0,1,1.0,0,1.0,0,1.0,0,1.0
...